DKA_A181_crystal_carboxylate
     RDKit          3D

 31 30  0  0  0  0  0  0  0  0999 V2000
   43.5040   36.3700   33.6010 C   0  0  0  0  0  0  0  0  0  0  0  0
   43.0960   35.5960   32.6960 O   0  0  0  0  0  0  0  0  0  0  0  0
   44.9710   36.7790   33.6270 C   0  0  0  0  0  0  0  0  0  0  0  0
   45.6410   37.0100   32.3280 C   0  0  0  0  0  0  0  0  0  0  0  0
   46.7730   36.0410   31.9560 C   0  0  0  0  0  0  0  0  0  0  0  0
   47.4670   36.3900   30.7040 C   0  0  0  0  0  0  0  0  0  0  0  0
   48.8290   36.0760   30.4750 C   0  0  0  0  0  0  0  0  0  0  0  0
   49.6710   35.3770   31.4630 C   0  0  0  0  0  0  0  0  0  0  0  0
   50.9520   36.0300   31.7230 C   0  0  0  0  0  0  0  0  0  0  0  0
   52.1500   35.3200   31.6350 C   0  0  0  0  0  0  0  0  0  0  0  0
   53.3400   35.8790   31.0500 C   0  0  0  0  0  0  0  0  0  0  0  0
   42.7430   36.7980   34.5060 O   0  0  0  0  0  0  0  0  0  0  0  0
   45.0422   37.7124   34.2046 H   0  0  0  0  0  0  0  0  0  0  0  0
   45.4943   35.9144   34.0613 H   0  0  0  0  0  0  0  0  0  0  0  0
   44.8748   36.9459   31.5413 H   0  0  0  0  0  0  0  0  0  0  0  0
   46.1214   37.9952   32.4207 H   0  0  0  0  0  0  0  0  0  0  0  0
   47.5103   36.0392   32.7723 H   0  0  0  0  0  0  0  0  0  0  0  0
   46.3124   35.0539   31.8026 H   0  0  0  0  0  0  0  0  0  0  0  0
   46.9014   35.9035   29.8956 H   0  0  0  0  0  0  0  0  0  0  0  0
   47.4957   37.4881   30.7611 H   0  0  0  0  0  0  0  0  0  0  0  0
   48.8478   35.4544   29.5676 H   0  0  0  0  0  0  0  0  0  0  0  0
   49.2860   37.0765   30.4665 H   0  0  0  0  0  0  0  0  0  0  0  0
   49.1150   35.3174   32.4103 H   0  0  0  0  0  0  0  0  0  0  0  0
   49.8993   34.3869   31.0416 H   0  0  0  0  0  0  0  0  0  0  0  0
   51.0290   36.8636   31.0094 H   0  0  0  0  0  0  0  0  0  0  0  0
   50.8895   36.2685   32.7950 H   0  0  0  0  0  0  0  0  0  0  0  0
   52.4174   35.0435   32.6656 H   0  0  0  0  0  0  0  0  0  0  0  0
   51.8922   34.5325   30.9115 H   0  0  0  0  0  0  0  0  0  0  0  0
   54.0248   36.2007   31.8485 H   0  0  0  0  0  0  0  0  0  0  0  0
   53.8343   35.1189   30.4272 H   0  0  0  0  0  0  0  0  0  0  0  0
   53.0705   36.7447   30.4272 H   0  0  0  0  0  0  0  0  0  0  0  0
  1  2  2  0
  1  3  1  0
  1 12  1  0
  3  4  1  0
  4  5  1  0
  5  6  1  0
  6  7  1  0
  7  8  1  0
  8  9  1  0
  9 10  1  0
 10 11  1  0
  3 13  1  0
  3 14  1  0
  4 15  1  0
  4 16  1  0
  5 17  1  0
  5 18  1  0
  6 19  1  0
  6 20  1  0
  7 21  1  0
  7 22  1  0
  8 23  1  0
  8 24  1  0
  9 25  1  0
  9 26  1  0
 10 27  1  0
 10 28  1  0
 11 29  1  0
 11 30  1  0
 11 31  1  0
M  CHG  1  12  -1
M  END
