linoleate_Clobe_run01
     RDKit          3D

 51 50  0  0  0  0  0  0  0  0999 V2000
    6.0190   33.1710   22.6580 C   0  0  0  0  0  0  0  0  0  0  0  0
    7.5160   33.4350   22.6500 C   0  0  0  0  0  0  0  0  0  0  0  0
    8.1950   33.0640   21.3300 C   0  0  0  0  0  0  0  0  0  0  0  0
    9.5320   32.3400   21.5170 C   0  0  0  0  0  0  0  0  0  0  0  0
    9.8170   31.3940   20.3450 C   0  0  0  0  0  0  0  0  0  0  0  0
   10.8470   31.8450   19.3440 C   0  0  0  0  0  0  0  0  0  0  0  0
   10.6330   32.5160   18.2010 C   0  0  0  0  0  0  0  0  0  0  0  0
    9.2710   32.9330   17.7270 C   0  0  0  0  0  0  0  0  0  0  0  0
    9.0250   32.5020   16.3110 C   0  0  0  0  0  0  0  0  0  0  0  0
    8.6370   31.2650   15.9650 C   0  0  0  0  0  0  0  0  0  0  0  0
    8.4000   30.1590   16.9540 C   0  0  0  0  0  0  0  0  0  0  0  0
    7.0880   29.4040   16.7080 C   0  0  0  0  0  0  0  0  0  0  0  0
    5.9340   29.8920   17.5890 C   0  0  0  0  0  0  0  0  0  0  0  0
    6.4020   30.5950   18.8680 C   0  0  0  0  0  0  0  0  0  0  0  0
    5.9090   32.0400   18.9800 C   0  0  0  0  0  0  0  0  0  0  0  0
    4.9960   32.4060   17.8030 C   0  0  0  0  0  0  0  0  0  0  0  0
    5.5520   33.5610   16.9700 C   0  0  0  0  0  0  0  0  0  0  0  0
    4.4920   34.2820   16.1750 C   0  0  0  0  0  0  0  0  0  0  0  0
    4.6870   35.0500   15.2450 O   0  0  0  0  0  0  0  0  0  0  0  0
    3.2570   33.9360   16.6200 O   0  0  0  0  0  0  0  0  0  0  0  0
    5.6633   33.1083   23.6970 H   0  0  0  0  0  0  0  0  0  0  0  0
    5.4992   33.9913   22.1414 H   0  0  0  0  0  0  0  0  0  0  0  0
    5.8112   32.2224   22.1414 H   0  0  0  0  0  0  0  0  0  0  0  0
    7.6815   34.5062   22.8374 H   0  0  0  0  0  0  0  0  0  0  0  0
    7.9602   32.8008   23.4313 H   0  0  0  0  0  0  0  0  0  0  0  0
    7.5191   32.4074   20.7625 H   0  0  0  0  0  0  0  0  0  0  0  0
    8.4056   34.0032   20.7975 H   0  0  0  0  0  0  0  0  0  0  0  0
   10.3382   33.0856   21.5809 H   0  0  0  0  0  0  0  0  0  0  0  0
    9.4806   31.7453   22.4410 H   0  0  0  0  0  0  0  0  0  0  0  0
   10.1584   30.4366   20.7655 H   0  0  0  0  0  0  0  0  0  0  0  0
    8.8732   31.3399   19.7826 H   0  0  0  0  0  0  0  0  0  0  0  0
   11.8934   31.5967   19.5752 H   0  0  0  0  0  0  0  0  0  0  0  0
   11.5023   32.7741   17.5784 H   0  0  0  0  0  0  0  0  0  0  0  0
    8.5108   32.4752   18.3770 H   0  0  0  0  0  0  0  0  0  0  0  0
    9.2126   34.0307   17.7684 H   0  0  0  0  0  0  0  0  0  0  0  0
    9.1711   33.2425   15.5108 H   0  0  0  0  0  0  0  0  0  0  0  0
    8.4838   31.0485   14.8974 H   0  0  0  0  0  0  0  0  0  0  0  0
    9.2334   29.4442   16.8864 H   0  0  0  0  0  0  0  0  0  0  0  0
    8.3322   30.6189   17.9509 H   0  0  0  0  0  0  0  0  0  0  0  0
    6.8021   29.5350   15.6539 H   0  0  0  0  0  0  0  0  0  0  0  0
    7.2671   28.3485   16.9607 H   0  0  0  0  0  0  0  0  0  0  0  0
    5.3242   30.5978   17.0060 H   0  0  0  0  0  0  0  0  0  0  0  0
    5.3614   29.0045   17.8963 H   0  0  0  0  0  0  0  0  0  0  0  0
    6.0269   30.0300   19.7341 H   0  0  0  0  0  0  0  0  0  0  0  0
    7.5011   30.6272   18.8384 H   0  0  0  0  0  0  0  0  0  0  0  0
    5.3482   32.1563   19.9191 H   0  0  0  0  0  0  0  0  0  0  0  0
    6.7823   32.7087   18.9652 H   0  0  0  0  0  0  0  0  0  0  0  0
    4.8853   31.5243   17.1546 H   0  0  0  0  0  0  0  0  0  0  0  0
    4.0286   32.7268   18.2167 H   0  0  0  0  0  0  0  0  0  0  0  0
    6.0320   34.2821   17.6480 H   0  0  0  0  0  0  0  0  0  0  0  0
    6.2660   33.1326   16.2512 H   0  0  0  0  0  0  0  0  0  0  0  0
  1  2  1  0
  2  3  1  0
  3  4  1  0
  4  5  1  0
  5  6  1  0
  6  7  2  0
  7  8  1  0
  8  9  1  0
  9 10  2  0
 10 11  1  0
 11 12  1  0
 12 13  1  0
 13 14  1  0
 14 15  1  0
 15 16  1  0
 16 17  1  0
 17 18  1  0
 18 19  2  0
 18 20  1  0
  1 21  1  0
  1 22  1  0
  1 23  1  0
  2 24  1  0
  2 25  1  0
  3 26  1  0
  3 27  1  0
  4 28  1  0
  4 29  1  0
  5 30  1  0
  5 31  1  0
  6 32  1  0
  7 33  1  0
  8 34  1  0
  8 35  1  0
  9 36  1  0
 10 37  1  0
 11 38  1  0
 11 39  1  0
 12 40  1  0
 12 41  1  0
 13 42  1  0
 13 43  1  0
 14 44  1  0
 14 45  1  0
 15 46  1  0
 15 47  1  0
 16 48  1  0
 16 49  1  0
 17 50  1  0
 17 51  1  0
M  CHG  1  20  -1
M  END
>  <meeko>  (1) 
{"is_sidechain": [false], "free_energy": -6.152, "intermolecular_energy": -11.188, "internal_energy": -2.598}

$$$$
linoleate_Clobe_run01
     RDKit          3D

 51 50  0  0  0  0  0  0  0  0999 V2000
    4.5370   34.7930   16.0220 C   0  0  0  0  0  0  0  0  0  0  0  0
    3.8130   33.7110   16.8070 C   0  0  0  0  0  0  0  0  0  0  0  0
    4.6590   32.4580   17.0440 C   0  0  0  0  0  0  0  0  0  0  0  0
    4.8540   32.1280   18.5270 C   0  0  0  0  0  0  0  0  0  0  0  0
    5.7730   30.9140   18.7070 C   0  0  0  0  0  0  0  0  0  0  0  0
    5.7370   29.8700   17.6230 C   0  0  0  0  0  0  0  0  0  0  0  0
    6.7590   29.4550   16.8570 C   0  0  0  0  0  0  0  0  0  0  0  0
    8.1550   29.9980   16.9720 C   0  0  0  0  0  0  0  0  0  0  0  0
    8.4700   30.9460   15.8530 C   0  0  0  0  0  0  0  0  0  0  0  0
    8.5330   32.2780   16.0010 C   0  0  0  0  0  0  0  0  0  0  0  0
    8.2970   32.9840   17.3050 C   0  0  0  0  0  0  0  0  0  0  0  0
    9.5810   33.5490   17.9250 C   0  0  0  0  0  0  0  0  0  0  0  0
   10.8180   32.6870   17.6470 C   0  0  0  0  0  0  0  0  0  0  0  0
   11.2230   31.8080   18.8360 C   0  0  0  0  0  0  0  0  0  0  0  0
   10.0550   31.4700   19.7660 C   0  0  0  0  0  0  0  0  0  0  0  0
   10.3850   31.8280   21.2200 C   0  0  0  0  0  0  0  0  0  0  0  0
   11.8670   31.6450   21.5440 C   0  0  0  0  0  0  0  0  0  0  0  0
   12.1910   31.8860   22.9980 C   0  0  0  0  0  0  0  0  0  0  0  0
   13.2960   31.8120   23.5120 O   0  0  0  0  0  0  0  0  0  0  0  0
   11.0670   32.2350   23.6750 O   0  0  0  0  0  0  0  0  0  0  0  0
    5.0094   35.4990   16.7208 H   0  0  0  0  0  0  0  0  0  0  0  0
    5.3092   34.3320   15.3886 H   0  0  0  0  0  0  0  0  0  0  0  0
    3.8163   35.3309   15.3886 H   0  0  0  0  0  0  0  0  0  0  0  0
    3.5229   34.1250   17.7840 H   0  0  0  0  0  0  0  0  0  0  0  0
    2.9427   33.4048   16.2081 H   0  0  0  0  0  0  0  0  0  0  0  0
    4.1620   31.6048   16.5592 H   0  0  0  0  0  0  0  0  0  0  0  0
    5.6553   32.6537   16.6209 H   0  0  0  0  0  0  0  0  0  0  0  0
    5.3027   32.9961   19.0321 H   0  0  0  0  0  0  0  0  0  0  0  0
    3.8727   31.8907   18.9637 H   0  0  0  0  0  0  0  0  0  0  0  0
    6.8059   31.2858   18.7771 H   0  0  0  0  0  0  0  0  0  0  0  0
    5.4046   30.4049   19.6099 H   0  0  0  0  0  0  0  0  0  0  0  0
    4.7633   29.3931   17.4373 H   0  0  0  0  0  0  0  0  0  0  0  0
    6.5635   28.6760   16.1054 H   0  0  0  0  0  0  0  0  0  0  0  0
    8.2538   30.5300   17.9297 H   0  0  0  0  0  0  0  0  0  0  0  0
    8.8590   29.1545   16.9182 H   0  0  0  0  0  0  0  0  0  0  0  0
    8.6601   30.5253   14.8546 H   0  0  0  0  0  0  0  0  0  0  0  0
    8.7711   32.8875   15.1168 H   0  0  0  0  0  0  0  0  0  0  0  0
    7.5972   33.8148   17.1315 H   0  0  0  0  0  0  0  0  0  0  0  0
    7.8911   32.2434   18.0098 H   0  0  0  0  0  0  0  0  0  0  0  0
    9.7554   34.5536   17.5123 H   0  0  0  0  0  0  0  0  0  0  0  0
    9.4355   33.5687   19.0152 H   0  0  0  0  0  0  0  0  0  0  0  0
   10.6034   32.0349   16.7876 H   0  0  0  0  0  0  0  0  0  0  0  0
   11.6551   33.3723   17.4478 H   0  0  0  0  0  0  0  0  0  0  0  0
   11.6434   30.8684   18.4481 H   0  0  0  0  0  0  0  0  0  0  0  0
   11.9553   32.3775   19.4271 H   0  0  0  0  0  0  0  0  0  0  0  0
    9.1676   32.0374   19.4489 H   0  0  0  0  0  0  0  0  0  0  0  0
    9.8638   30.3883   19.7075 H   0  0  0  0  0  0  0  0  0  0  0  0
   10.1124   32.8792   21.3954 H   0  0  0  0  0  0  0  0  0  0  0  0
    9.8137   31.1490   21.8701 H   0  0  0  0  0  0  0  0  0  0  0  0
   12.1566   30.6154   21.2871 H   0  0  0  0  0  0  0  0  0  0  0  0
   12.4247   32.3894   20.9567 H   0  0  0  0  0  0  0  0  0  0  0  0
  1  2  1  0
  2  3  1  0
  3  4  1  0
  4  5  1  0
  5  6  1  0
  6  7  2  0
  7  8  1  0
  8  9  1  0
  9 10  2  0
 10 11  1  0
 11 12  1  0
 12 13  1  0
 13 14  1  0
 14 15  1  0
 15 16  1  0
 16 17  1  0
 17 18  1  0
 18 19  2  0
 18 20  1  0
  1 21  1  0
  1 22  1  0
  1 23  1  0
  2 24  1  0
  2 25  1  0
  3 26  1  0
  3 27  1  0
  4 28  1  0
  4 29  1  0
  5 30  1  0
  5 31  1  0
  6 32  1  0
  7 33  1  0
  8 34  1  0
  8 35  1  0
  9 36  1  0
 10 37  1  0
 11 38  1  0
 11 39  1  0
 12 40  1  0
 12 41  1  0
 13 42  1  0
 13 43  1  0
 14 44  1  0
 14 45  1  0
 15 46  1  0
 15 47  1  0
 16 48  1  0
 16 49  1  0
 17 50  1  0
 17 51  1  0
M  CHG  1  20  -1
M  END
>  <meeko>  (2) 
{"is_sidechain": [false], "free_energy": -6.097, "intermolecular_energy": -11.77, "internal_energy": -1.915}

$$$$
linoleate_Clobe_run01
     RDKit          3D

 51 50  0  0  0  0  0  0  0  0999 V2000
    8.4130   29.2710   17.1410 C   0  0  0  0  0  0  0  0  0  0  0  0
    6.9330   29.6120   17.2150 C   0  0  0  0  0  0  0  0  0  0  0  0
    6.4470   29.9220   18.6330 C   0  0  0  0  0  0  0  0  0  0  0  0
    5.0650   30.5810   18.6700 C   0  0  0  0  0  0  0  0  0  0  0  0
    5.1820   32.1040   18.8010 C   0  0  0  0  0  0  0  0  0  0  0  0
    5.1940   32.8970   17.5220 C   0  0  0  0  0  0  0  0  0  0  0  0
    6.2590   33.4370   16.9080 C   0  0  0  0  0  0  0  0  0  0  0  0
    7.6620   33.3270   17.4320 C   0  0  0  0  0  0  0  0  0  0  0  0
    8.6060   32.8270   16.3780 C   0  0  0  0  0  0  0  0  0  0  0  0
    9.9210   32.6520   16.5780 C   0  0  0  0  0  0  0  0  0  0  0  0
   10.6110   32.9330   17.8830 C   0  0  0  0  0  0  0  0  0  0  0  0
   10.7560   31.6890   18.7660 C   0  0  0  0  0  0  0  0  0  0  0  0
    9.6030   31.5130   19.7600 C   0  0  0  0  0  0  0  0  0  0  0  0
   10.0330   31.6720   21.2220 C   0  0  0  0  0  0  0  0  0  0  0  0
   11.5300   31.4410   21.4430 C   0  0  0  0  0  0  0  0  0  0  0  0
   11.9510   31.8560   22.8580 C   0  0  0  0  0  0  0  0  0  0  0  0
   10.7780   32.3850   23.6830 C   0  0  0  0  0  0  0  0  0  0  0  0
   11.1690   32.7690   25.0900 C   0  0  0  0  0  0  0  0  0  0  0  0
   12.2680   33.1620   25.4500 O   0  0  0  0  0  0  0  0  0  0  0  0
   10.1020   32.6460   25.9210 O   0  0  0  0  0  0  0  0  0  0  0  0
    8.8191   29.1774   18.1590 H   0  0  0  0  0  0  0  0  0  0  0  0
    8.5436   28.3192   16.6052 H   0  0  0  0  0  0  0  0  0  0  0  0
    8.9469   30.0697   16.6052 H   0  0  0  0  0  0  0  0  0  0  0  0
    6.7468   30.4928   16.5830 H   0  0  0  0  0  0  0  0  0  0  0  0
    6.3797   28.7260   16.8702 H   0  0  0  0  0  0  0  0  0  0  0  0
    6.3999   28.9802   19.1995 H   0  0  0  0  0  0  0  0  0  0  0  0
    7.1596   30.6354   19.0726 H   0  0  0  0  0  0  0  0  0  0  0  0
    4.5276   30.3408   17.7407 H   0  0  0  0  0  0  0  0  0  0  0  0
    4.5184   30.1966   19.5437 H   0  0  0  0  0  0  0  0  0  0  0  0
    4.3283   32.4528   19.4006 H   0  0  0  0  0  0  0  0  0  0  0  0
    6.1679   32.2784   19.2566 H   0  0  0  0  0  0  0  0  0  0  0  0
    4.2199   33.0518   17.0350 H   0  0  0  0  0  0  0  0  0  0  0  0
    6.0950   33.9895   15.9711 H   0  0  0  0  0  0  0  0  0  0  0  0
    7.9962   34.3192   17.7693 H   0  0  0  0  0  0  0  0  0  0  0  0
    7.6636   32.6087   18.2650 H   0  0  0  0  0  0  0  0  0  0  0  0
    8.1964   32.5905   15.3849 H   0  0  0  0  0  0  0  0  0  0  0  0
   10.5286   32.2818   15.7391 H   0  0  0  0  0  0  0  0  0  0  0  0
   11.6145   33.3302   17.6701 H   0  0  0  0  0  0  0  0  0  0  0  0
    9.9905   33.6555   18.4334 H   0  0  0  0  0  0  0  0  0  0  0  0
   10.7951   30.8023   18.1162 H   0  0  0  0  0  0  0  0  0  0  0  0
   11.6771   31.8129   19.3544 H   0  0  0  0  0  0  0  0  0  0  0  0
    8.8332   32.2669   19.5386 H   0  0  0  0  0  0  0  0  0  0  0  0
    9.2248   30.4869   19.6416 H   0  0  0  0  0  0  0  0  0  0  0  0
    9.7854   32.6925   21.5494 H   0  0  0  0  0  0  0  0  0  0  0  0
    9.4967   30.9077   21.8036 H   0  0  0  0  0  0  0  0  0  0  0  0
   11.7534   30.3734   21.3006 H   0  0  0  0  0  0  0  0  0  0  0  0
   12.0880   32.0533   20.7193 H   0  0  0  0  0  0  0  0  0  0  0  0
   12.3774   30.9811   23.3706 H   0  0  0  0  0  0  0  0  0  0  0  0
   12.6882   32.6671   22.7644 H   0  0  0  0  0  0  0  0  0  0  0  0
   10.3676   33.2725   23.1791 H   0  0  0  0  0  0  0  0  0  0  0  0
   10.0378   31.5748   23.7578 H   0  0  0  0  0  0  0  0  0  0  0  0
  1  2  1  0
  2  3  1  0
  3  4  1  0
  4  5  1  0
  5  6  1  0
  6  7  2  0
  7  8  1  0
  8  9  1  0
  9 10  2  0
 10 11  1  0
 11 12  1  0
 12 13  1  0
 13 14  1  0
 14 15  1  0
 15 16  1  0
 16 17  1  0
 17 18  1  0
 18 19  2  0
 18 20  1  0
  1 21  1  0
  1 22  1  0
  1 23  1  0
  2 24  1  0
  2 25  1  0
  3 26  1  0
  3 27  1  0
  4 28  1  0
  4 29  1  0
  5 30  1  0
  5 31  1  0
  6 32  1  0
  7 33  1  0
  8 34  1  0
  8 35  1  0
  9 36  1  0
 10 37  1  0
 11 38  1  0
 11 39  1  0
 12 40  1  0
 12 41  1  0
 13 42  1  0
 13 43  1  0
 14 44  1  0
 14 45  1  0
 15 46  1  0
 15 47  1  0
 16 48  1  0
 16 49  1  0
 17 50  1  0
 17 51  1  0
M  CHG  1  20  -1
M  END
>  <meeko>  (3) 
{"is_sidechain": [false], "free_energy": -5.97, "intermolecular_energy": -11.39, "internal_energy": -2.065}

$$$$
linoleate_Clobe_run01
     RDKit          3D

 51 50  0  0  0  0  0  0  0  0999 V2000
    8.9490   32.2800   15.6340 C   0  0  0  0  0  0  0  0  0  0  0  0
    8.1460   33.1010   16.6320 C   0  0  0  0  0  0  0  0  0  0  0  0
    8.6830   33.0180   18.0620 C   0  0  0  0  0  0  0  0  0  0  0  0
   10.1090   32.4660   18.1450 C   0  0  0  0  0  0  0  0  0  0  0  0
   10.2480   31.4630   19.2960 C   0  0  0  0  0  0  0  0  0  0  0  0
   11.4070   31.6640   20.2350 C   0  0  0  0  0  0  0  0  0  0  0  0
   11.3730   31.6970   21.5760 C   0  0  0  0  0  0  0  0  0  0  0  0
   10.1140   31.5330   22.3780 C   0  0  0  0  0  0  0  0  0  0  0  0
    9.8780   32.7090   23.2800 C   0  0  0  0  0  0  0  0  0  0  0  0
    8.8620   33.5720   23.1280 C   0  0  0  0  0  0  0  0  0  0  0  0
    7.8340   33.4660   22.0380 C   0  0  0  0  0  0  0  0  0  0  0  0
    6.4010   33.3560   22.5710 C   0  0  0  0  0  0  0  0  0  0  0  0
    5.5550   32.3170   21.8270 C   0  0  0  0  0  0  0  0  0  0  0  0
    6.1700   31.8770   20.4940 C   0  0  0  0  0  0  0  0  0  0  0  0
    5.1750   31.8990   19.3300 C   0  0  0  0  0  0  0  0  0  0  0  0
    5.5350   30.8470   18.2740 C   0  0  0  0  0  0  0  0  0  0  0  0
    6.7750   30.0390   18.6560 C   0  0  0  0  0  0  0  0  0  0  0  0
    7.5010   29.4680   17.4620 C   0  0  0  0  0  0  0  0  0  0  0  0
    8.6200   28.9770   17.4670 O   0  0  0  0  0  0  0  0  0  0  0  0
    6.7170   29.5470   16.3570 O   0  0  0  0  0  0  0  0  0  0  0  0
    9.6182   31.5958   16.1763 H   0  0  0  0  0  0  0  0  0  0  0  0
    8.2626   31.6973   15.0021 H   0  0  0  0  0  0  0  0  0  0  0  0
    9.5468   32.9533   15.0021 H   0  0  0  0  0  0  0  0  0  0  0  0
    8.1659   34.1536   16.3131 H   0  0  0  0  0  0  0  0  0  0  0  0
    7.1264   32.6884   16.6446 H   0  0  0  0  0  0  0  0  0  0  0  0
    8.6743   34.0283   18.4969 H   0  0  0  0  0  0  0  0  0  0  0  0
    8.0330   32.3225   18.6131 H   0  0  0  0  0  0  0  0  0  0  0  0
   10.3547   31.9624   17.1984 H   0  0  0  0  0  0  0  0  0  0  0  0
   10.7974   33.3043   18.3279 H   0  0  0  0  0  0  0  0  0  0  0  0
    9.3247   31.5104   19.8920 H   0  0  0  0  0  0  0  0  0  0  0  0
   10.4347   30.4932   18.8117 H   0  0  0  0  0  0  0  0  0  0  0  0
   12.3942   31.7992   19.7689 H   0  0  0  0  0  0  0  0  0  0  0  0
   12.3181   31.8525   22.1169 H   0  0  0  0  0  0  0  0  0  0  0  0
    9.2620   31.4344   21.6892 H   0  0  0  0  0  0  0  0  0  0  0  0
   10.2185   30.6343   23.0036 H   0  0  0  0  0  0  0  0  0  0  0  0
   10.5776   32.8727   24.1129 H   0  0  0  0  0  0  0  0  0  0  0  0
    8.7770   34.4044   23.8421 H   0  0  0  0  0  0  0  0  0  0  0  0
    7.9035   34.3616   21.4031 H   0  0  0  0  0  0  0  0  0  0  0  0
    8.0462   32.5447   21.4757 H   0  0  0  0  0  0  0  0  0  0  0  0
    6.4444   33.0746   23.6335 H   0  0  0  0  0  0  0  0  0  0  0  0
    5.9216   34.3345   22.4203 H   0  0  0  0  0  0  0  0  0  0  0  0
    5.4447   31.4313   22.4699 H   0  0  0  0  0  0  0  0  0  0  0  0
    4.5869   32.7872   21.5998 H   0  0  0  0  0  0  0  0  0  0  0  0
    7.0031   32.5539   20.2537 H   0  0  0  0  0  0  0  0  0  0  0  0
    6.5034   30.8360   20.6174 H   0  0  0  0  0  0  0  0  0  0  0  0
    4.1664   31.6897   19.7159 H   0  0  0  0  0  0  0  0  0  0  0  0
    5.2112   32.8924   18.8590 H   0  0  0  0  0  0  0  0  0  0  0  0
    4.6858   30.1575   18.1584 H   0  0  0  0  0  0  0  0  0  0  0  0
    5.7553   31.3759   17.3350 H   0  0  0  0  0  0  0  0  0  0  0  0
    7.4659   30.6963   19.2043 H   0  0  0  0  0  0  0  0  0  0  0  0
    6.4376   29.1915   19.2707 H   0  0  0  0  0  0  0  0  0  0  0  0
  1  2  1  0
  2  3  1  0
  3  4  1  0
  4  5  1  0
  5  6  1  0
  6  7  2  0
  7  8  1  0
  8  9  1  0
  9 10  2  0
 10 11  1  0
 11 12  1  0
 12 13  1  0
 13 14  1  0
 14 15  1  0
 15 16  1  0
 16 17  1  0
 17 18  1  0
 18 19  2  0
 18 20  1  0
  1 21  1  0
  1 22  1  0
  1 23  1  0
  2 24  1  0
  2 25  1  0
  3 26  1  0
  3 27  1  0
  4 28  1  0
  4 29  1  0
  5 30  1  0
  5 31  1  0
  6 32  1  0
  7 33  1  0
  8 34  1  0
  8 35  1  0
  9 36  1  0
 10 37  1  0
 11 38  1  0
 11 39  1  0
 12 40  1  0
 12 41  1  0
 13 42  1  0
 13 43  1  0
 14 44  1  0
 14 45  1  0
 15 46  1  0
 15 47  1  0
 16 48  1  0
 16 49  1  0
 17 50  1  0
 17 51  1  0
M  CHG  1  20  -1
M  END
>  <meeko>  (4) 
{"is_sidechain": [false], "free_energy": -5.944, "intermolecular_energy": -10.928, "internal_energy": -2.479}

$$$$
linoleate_Clobe_run01
     RDKit          3D

 51 50  0  0  0  0  0  0  0  0999 V2000
    5.3020   32.5560   17.6860 C   0  0  0  0  0  0  0  0  0  0  0  0
    5.9770   31.8590   18.8570 C   0  0  0  0  0  0  0  0  0  0  0  0
    6.2740   30.3800   18.5990 C   0  0  0  0  0  0  0  0  0  0  0  0
    6.6010   30.0740   17.1340 C   0  0  0  0  0  0  0  0  0  0  0  0
    8.1020   30.2230   16.8600 C   0  0  0  0  0  0  0  0  0  0  0  0
    8.5010   31.1840   15.7720 C   0  0  0  0  0  0  0  0  0  0  0  0
    8.9910   32.4250   15.9200 C   0  0  0  0  0  0  0  0  0  0  0  0
    9.2230   33.0710   17.2560 C   0  0  0  0  0  0  0  0  0  0  0  0
   10.5560   32.6870   17.8290 C   0  0  0  0  0  0  0  0  0  0  0  0
   10.7120   32.1070   19.0290 C   0  0  0  0  0  0  0  0  0  0  0  0
    9.5720   31.7690   19.9460 C   0  0  0  0  0  0  0  0  0  0  0  0
   10.0260   31.1070   21.2520 C   0  0  0  0  0  0  0  0  0  0  0  0
   11.4930   31.3900   21.5970 C   0  0  0  0  0  0  0  0  0  0  0  0
   11.6760   32.0550   22.9650 C   0  0  0  0  0  0  0  0  0  0  0  0
   10.3590   32.4990   23.6060 C   0  0  0  0  0  0  0  0  0  0  0  0
   10.5390   32.7810   25.1020 C   0  0  0  0  0  0  0  0  0  0  0  0
   12.0090   32.8890   25.5030 C   0  0  0  0  0  0  0  0  0  0  0  0
   12.2220   33.6790   26.7710 C   0  0  0  0  0  0  0  0  0  0  0  0
   11.9020   34.8430   26.9570 O   0  0  0  0  0  0  0  0  0  0  0  0
   12.8050   32.8970   27.7160 O   0  0  0  0  0  0  0  0  0  0  0  0
    4.5837   33.2977   18.0654 H   0  0  0  0  0  0  0  0  0  0  0  0
    6.0622   33.0620   17.0728 H   0  0  0  0  0  0  0  0  0  0  0  0
    4.7718   31.8124   17.0728 H   0  0  0  0  0  0  0  0  0  0  0  0
    6.9264   32.3731   19.0677 H   0  0  0  0  0  0  0  0  0  0  0  0
    5.2796   31.9053   19.7064 H   0  0  0  0  0  0  0  0  0  0  0  0
    7.1337   30.0834   19.2179 H   0  0  0  0  0  0  0  0  0  0  0  0
    5.3649   29.8158   18.8545 H   0  0  0  0  0  0  0  0  0  0  0  0
    6.2949   29.0424   16.9056 H   0  0  0  0  0  0  0  0  0  0  0  0
    6.0575   30.7886   16.4984 H   0  0  0  0  0  0  0  0  0  0  0  0
    8.5788   30.5594   17.7925 H   0  0  0  0  0  0  0  0  0  0  0  0
    8.4295   29.2345   16.5055 H   0  0  0  0  0  0  0  0  0  0  0  0
    8.3769   30.8289   14.7383 H   0  0  0  0  0  0  0  0  0  0  0  0
    9.2357   32.9995   15.0144 H   0  0  0  0  0  0  0  0  0  0  0  0
    9.1872   34.1638   17.1356 H   0  0  0  0  0  0  0  0  0  0  0  0
    8.4387   32.7270   17.9464 H   0  0  0  0  0  0  0  0  0  0  0  0
   11.4562   32.8927   17.2313 H   0  0  0  0  0  0  0  0  0  0  0  0
   11.7329   31.8655   19.3597 H   0  0  0  0  0  0  0  0  0  0  0  0
    9.0341   32.6964   20.1923 H   0  0  0  0  0  0  0  0  0  0  0  0
    8.9301   31.0478   19.4189 H   0  0  0  0  0  0  0  0  0  0  0  0
    9.3958   31.4828   22.0715 H   0  0  0  0  0  0  0  0  0  0  0  0
    9.9266   30.0197   21.1180 H   0  0  0  0  0  0  0  0  0  0  0  0
   12.0422   30.4369   21.5958 H   0  0  0  0  0  0  0  0  0  0  0  0
   11.8766   32.0901   20.8403 H   0  0  0  0  0  0  0  0  0  0  0  0
   12.1672   31.3374   23.6386 H   0  0  0  0  0  0  0  0  0  0  0  0
   12.2819   32.9595   22.8079 H   0  0  0  0  0  0  0  0  0  0  0  0
   10.0081   33.4148   23.1078 H   0  0  0  0  0  0  0  0  0  0  0  0
    9.6241   31.6888   23.4898 H   0  0  0  0  0  0  0  0  0  0  0  0
   10.0361   33.7285   25.3456 H   0  0  0  0  0  0  0  0  0  0  0  0
   10.1018   31.9376   25.6566 H   0  0  0  0  0  0  0  0  0  0  0  0
   12.4063   31.8742   25.6523 H   0  0  0  0  0  0  0  0  0  0  0  0
   12.5306   33.4216   24.6941 H   0  0  0  0  0  0  0  0  0  0  0  0
  1  2  1  0
  2  3  1  0
  3  4  1  0
  4  5  1  0
  5  6  1  0
  6  7  2  0
  7  8  1  0
  8  9  1  0
  9 10  2  0
 10 11  1  0
 11 12  1  0
 12 13  1  0
 13 14  1  0
 14 15  1  0
 15 16  1  0
 16 17  1  0
 17 18  1  0
 18 19  2  0
 18 20  1  0
  1 21  1  0
  1 22  1  0
  1 23  1  0
  2 24  1  0
  2 25  1  0
  3 26  1  0
  3 27  1  0
  4 28  1  0
  4 29  1  0
  5 30  1  0
  5 31  1  0
  6 32  1  0
  7 33  1  0
  8 34  1  0
  8 35  1  0
  9 36  1  0
 10 37  1  0
 11 38  1  0
 11 39  1  0
 12 40  1  0
 12 41  1  0
 13 42  1  0
 13 43  1  0
 14 44  1  0
 14 45  1  0
 15 46  1  0
 15 47  1  0
 16 48  1  0
 16 49  1  0
 17 50  1  0
 17 51  1  0
M  CHG  1  20  -1
M  END
>  <meeko>  (5) 
{"is_sidechain": [false], "free_energy": -5.934, "intermolecular_energy": -11.441, "internal_energy": -1.947}

$$$$
linoleate_Clobe_run01
     RDKit          3D

 51 50  0  0  0  0  0  0  0  0999 V2000
   10.4140   32.9260   25.3780 C   0  0  0  0  0  0  0  0  0  0  0  0
   10.8840   32.2220   24.1140 C   0  0  0  0  0  0  0  0  0  0  0  0
   10.0820   32.6030   22.8680 C   0  0  0  0  0  0  0  0  0  0  0  0
    8.8370   33.4390   23.1800 C   0  0  0  0  0  0  0  0  0  0  0  0
    7.8020   33.3310   22.0540 C   0  0  0  0  0  0  0  0  0  0  0  0
    6.3550   33.2720   22.4650 C   0  0  0  0  0  0  0  0  0  0  0  0
    5.3880   32.5080   21.9350 C   0  0  0  0  0  0  0  0  0  0  0  0
    5.6140   31.5550   20.7960 C   0  0  0  0  0  0  0  0  0  0  0  0
    5.2410   32.1700   19.4800 C   0  0  0  0  0  0  0  0  0  0  0  0
    5.2800   31.5130   18.3110 C   0  0  0  0  0  0  0  0  0  0  0  0
    5.7020   30.0770   18.1760 C   0  0  0  0  0  0  0  0  0  0  0  0
    7.1680   29.9180   17.7560 C   0  0  0  0  0  0  0  0  0  0  0  0
    7.4350   30.3550   16.3120 C   0  0  0  0  0  0  0  0  0  0  0  0
    8.6790   31.2390   16.1660 C   0  0  0  0  0  0  0  0  0  0  0  0
    8.4520   32.6840   16.6200 C   0  0  0  0  0  0  0  0  0  0  0  0
    9.5120   33.1160   17.6400 C   0  0  0  0  0  0  0  0  0  0  0  0
   10.5720   32.0390   17.8720 C   0  0  0  0  0  0  0  0  0  0  0  0
   10.5480   31.4740   19.2710 C   0  0  0  0  0  0  0  0  0  0  0  0
    9.5670   31.0390   19.8550 O   0  0  0  0  0  0  0  0  0  0  0  0
   11.7980   31.4840   19.8010 O   0  0  0  0  0  0  0  0  0  0  0  0
   10.7792   32.3790   26.2597 H   0  0  0  0  0  0  0  0  0  0  0  0
   10.8085   33.9527   25.3941 H   0  0  0  0  0  0  0  0  0  0  0  0
    9.3145   32.9553   25.3941 H   0  0  0  0  0  0  0  0  0  0  0  0
   11.9387   32.4827   23.9421 H   0  0  0  0  0  0  0  0  0  0  0  0
   10.7410   31.1430   24.2729 H   0  0  0  0  0  0  0  0  0  0  0  0
   10.7332   33.1834   22.1978 H   0  0  0  0  0  0  0  0  0  0  0  0
    9.7376   31.6671   22.4039 H   0  0  0  0  0  0  0  0  0  0  0  0
    8.3875   33.0779   24.1168 H   0  0  0  0  0  0  0  0  0  0  0  0
    9.1391   34.4923   23.2764 H   0  0  0  0  0  0  0  0  0  0  0  0
    7.9271   34.2079   21.4018 H   0  0  0  0  0  0  0  0  0  0  0  0
    8.0033   32.3639   21.5701 H   0  0  0  0  0  0  0  0  0  0  0  0
    6.0566   33.9302   23.2943 H   0  0  0  0  0  0  0  0  0  0  0  0
    4.3751   32.5835   22.3572 H   0  0  0  0  0  0  0  0  0  0  0  0
    6.6774   31.2747   20.7706 H   0  0  0  0  0  0  0  0  0  0  0  0
    4.9788   30.6712   20.9554 H   0  0  0  0  0  0  0  0  0  0  0  0
    4.9165   33.2210   19.4729 H   0  0  0  0  0  0  0  0  0  0  0  0
    4.9867   32.0558   17.4003 H   0  0  0  0  0  0  0  0  0  0  0  0
    5.5595   29.5776   19.1457 H   0  0  0  0  0  0  0  0  0  0  0  0
    5.0836   29.6263   17.3858 H   0  0  0  0  0  0  0  0  0  0  0  0
    7.7915   30.5278   18.4264 H   0  0  0  0  0  0  0  0  0  0  0  0
    7.4121   28.8475   17.8231 H   0  0  0  0  0  0  0  0  0  0  0  0
    7.5718   29.4550   15.6945 H   0  0  0  0  0  0  0  0  0  0  0  0
    6.5706   30.9529   15.9875 H   0  0  0  0  0  0  0  0  0  0  0  0
    9.4883   30.8057   16.7720 H   0  0  0  0  0  0  0  0  0  0  0  0
    8.9331   31.2697   15.0962 H   0  0  0  0  0  0  0  0  0  0  0  0
    8.5045   33.3479   15.7445 H   0  0  0  0  0  0  0  0  0  0  0  0
    7.4625   32.7488   17.0962 H   0  0  0  0  0  0  0  0  0  0  0  0
   10.0079   34.0256   17.2702 H   0  0  0  0  0  0  0  0  0  0  0  0
    9.0017   33.2956   18.5978 H   0  0  0  0  0  0  0  0  0  0  0  0
   10.3984   31.2184   17.1604 H   0  0  0  0  0  0  0  0  0  0  0  0
   11.5550   32.5106   17.7264 H   0  0  0  0  0  0  0  0  0  0  0  0
  1  2  1  0
  2  3  1  0
  3  4  1  0
  4  5  1  0
  5  6  1  0
  6  7  2  0
  7  8  1  0
  8  9  1  0
  9 10  2  0
 10 11  1  0
 11 12  1  0
 12 13  1  0
 13 14  1  0
 14 15  1  0
 15 16  1  0
 16 17  1  0
 17 18  1  0
 18 19  2  0
 18 20  1  0
  1 21  1  0
  1 22  1  0
  1 23  1  0
  2 24  1  0
  2 25  1  0
  3 26  1  0
  3 27  1  0
  4 28  1  0
  4 29  1  0
  5 30  1  0
  5 31  1  0
  6 32  1  0
  7 33  1  0
  8 34  1  0
  8 35  1  0
  9 36  1  0
 10 37  1  0
 11 38  1  0
 11 39  1  0
 12 40  1  0
 12 41  1  0
 13 42  1  0
 13 43  1  0
 14 44  1  0
 14 45  1  0
 15 46  1  0
 15 47  1  0
 16 48  1  0
 16 49  1  0
 17 50  1  0
 17 51  1  0
M  CHG  1  20  -1
M  END
>  <meeko>  (6) 
{"is_sidechain": [false], "free_energy": -5.864, "intermolecular_energy": -11.635, "internal_energy": -1.626}

$$$$
linoleate_Clobe_run01
     RDKit          3D

 51 50  0  0  0  0  0  0  0  0999 V2000
    5.5830   31.7810   19.9920 C   0  0  0  0  0  0  0  0  0  0  0  0
    5.2440   31.0830   18.6840 C   0  0  0  0  0  0  0  0  0  0  0  0
    6.1570   29.8960   18.3700 C   0  0  0  0  0  0  0  0  0  0  0  0
    6.7880   29.9690   16.9770 C   0  0  0  0  0  0  0  0  0  0  0  0
    8.3150   30.0730   17.0670 C   0  0  0  0  0  0  0  0  0  0  0  0
    8.9220   31.4190   16.7740 C   0  0  0  0  0  0  0  0  0  0  0  0
    9.7970   32.1010   17.5300 C   0  0  0  0  0  0  0  0  0  0  0  0
   10.3240   31.6000   18.8440 C   0  0  0  0  0  0  0  0  0  0  0  0
    9.3410   31.8280   19.9540 C   0  0  0  0  0  0  0  0  0  0  0  0
    9.6550   31.7420   21.2560 C   0  0  0  0  0  0  0  0  0  0  0  0
   11.0300   31.4090   21.7620 C   0  0  0  0  0  0  0  0  0  0  0  0
   11.3950   32.1590   23.0480 C   0  0  0  0  0  0  0  0  0  0  0  0
   10.1730   32.6510   23.8320 C   0  0  0  0  0  0  0  0  0  0  0  0
   10.4520   32.8550   25.3250 C   0  0  0  0  0  0  0  0  0  0  0  0
   11.9230   33.1460   25.6320 C   0  0  0  0  0  0  0  0  0  0  0  0
   12.0650   34.3660   26.5510 C   0  0  0  0  0  0  0  0  0  0  0  0
   10.7360   35.0860   26.7740 C   0  0  0  0  0  0  0  0  0  0  0  0
   10.3390   35.1640   28.2280 C   0  0  0  0  0  0  0  0  0  0  0  0
    9.7200   36.0740   28.7580 O   0  0  0  0  0  0  0  0  0  0  0  0
   10.7450   34.0460   28.8830 O   0  0  0  0  0  0  0  0  0  0  0  0
    5.2751   31.1470   20.8365 H   0  0  0  0  0  0  0  0  0  0  0  0
    6.6675   31.9581   20.0428 H   0  0  0  0  0  0  0  0  0  0  0  0
    5.0517   32.7428   20.0428 H   0  0  0  0  0  0  0  0  0  0  0  0
    4.2076   30.7190   18.7422 H   0  0  0  0  0  0  0  0  0  0  0  0
    5.3834   31.8197   17.8791 H   0  0  0  0  0  0  0  0  0  0  0  0
    6.9635   29.8685   19.1176 H   0  0  0  0  0  0  0  0  0  0  0  0
    5.5343   28.9897   18.3984 H   0  0  0  0  0  0  0  0  0  0  0  0
    6.5223   29.0619   16.4144 H   0  0  0  0  0  0  0  0  0  0  0  0
    6.4064   30.8660   16.4674 H   0  0  0  0  0  0  0  0  0  0  0  0
    8.6081   29.7911   18.0891 H   0  0  0  0  0  0  0  0  0  0  0  0
    8.6958   29.4076   16.2782 H   0  0  0  0  0  0  0  0  0  0  0  0
    8.6135   31.8984   15.8333 H   0  0  0  0  0  0  0  0  0  0  0  0
   10.1466   33.0790   17.1676 H   0  0  0  0  0  0  0  0  0  0  0  0
   10.5251   30.5218   18.7606 H   0  0  0  0  0  0  0  0  0  0  0  0
   11.2450   32.1533   19.0798 H   0  0  0  0  0  0  0  0  0  0  0  0
    8.3044   32.0799   19.6857 H   0  0  0  0  0  0  0  0  0  0  0  0
    8.8607   31.9257   21.9945 H   0  0  0  0  0  0  0  0  0  0  0  0
   11.0775   30.3283   21.9614 H   0  0  0  0  0  0  0  0  0  0  0  0
   11.7481   31.7167   20.9876 H   0  0  0  0  0  0  0  0  0  0  0  0
   11.9747   31.4829   23.6936 H   0  0  0  0  0  0  0  0  0  0  0  0
   11.9721   33.0480   22.7535 H   0  0  0  0  0  0  0  0  0  0  0  0
    9.8465   33.6101   23.4037 H   0  0  0  0  0  0  0  0  0  0  0  0
    9.3984   31.8744   23.7486 H   0  0  0  0  0  0  0  0  0  0  0  0
    9.8470   33.7020   25.6807 H   0  0  0  0  0  0  0  0  0  0  0  0
   10.1921   31.9163   25.8362 H   0  0  0  0  0  0  0  0  0  0  0  0
   12.3667   32.2697   26.1272 H   0  0  0  0  0  0  0  0  0  0  0  0
   12.4416   33.3594   24.6857 H   0  0  0  0  0  0  0  0  0  0  0  0
   12.4531   34.0316   27.5244 H   0  0  0  0  0  0  0  0  0  0  0  0
   12.7520   35.0739   26.0643 H   0  0  0  0  0  0  0  0  0  0  0  0
   10.8222   36.1093   26.3797 H   0  0  0  0  0  0  0  0  0  0  0  0
    9.9590   34.5069   26.2535 H   0  0  0  0  0  0  0  0  0  0  0  0
  1  2  1  0
  2  3  1  0
  3  4  1  0
  4  5  1  0
  5  6  1  0
  6  7  2  0
  7  8  1  0
  8  9  1  0
  9 10  2  0
 10 11  1  0
 11 12  1  0
 12 13  1  0
 13 14  1  0
 14 15  1  0
 15 16  1  0
 16 17  1  0
 17 18  1  0
 18 19  2  0
 18 20  1  0
  1 21  1  0
  1 22  1  0
  1 23  1  0
  2 24  1  0
  2 25  1  0
  3 26  1  0
  3 27  1  0
  4 28  1  0
  4 29  1  0
  5 30  1  0
  5 31  1  0
  6 32  1  0
  7 33  1  0
  8 34  1  0
  8 35  1  0
  9 36  1  0
 10 37  1  0
 11 38  1  0
 11 39  1  0
 12 40  1  0
 12 41  1  0
 13 42  1  0
 13 43  1  0
 14 44  1  0
 14 45  1  0
 15 46  1  0
 15 47  1  0
 16 48  1  0
 16 49  1  0
 17 50  1  0
 17 51  1  0
M  CHG  1  20  -1
M  END
>  <meeko>  (7) 
{"is_sidechain": [false], "free_energy": -5.844, "intermolecular_energy": -11.865, "internal_energy": -1.359}

$$$$
linoleate_Clobe_run01
     RDKit          3D

 51 50  0  0  0  0  0  0  0  0999 V2000
   11.6020   31.5540   19.6800 C   0  0  0  0  0  0  0  0  0  0  0  0
   10.0850   31.6490   19.6300 C   0  0  0  0  0  0  0  0  0  0  0  0
    9.5630   32.5090   18.4760 C   0  0  0  0  0  0  0  0  0  0  0  0
    9.2540   31.7030   17.2120 C   0  0  0  0  0  0  0  0  0  0  0  0
    8.6790   30.3240   17.5610 C   0  0  0  0  0  0  0  0  0  0  0  0
    7.7470   29.7030   16.5560 C   0  0  0  0  0  0  0  0  0  0  0  0
    6.4170   29.5550   16.6610 C   0  0  0  0  0  0  0  0  0  0  0  0
    5.6240   30.0060   17.8550 C   0  0  0  0  0  0  0  0  0  0  0  0
    5.2880   31.4660   17.7730 C   0  0  0  0  0  0  0  0  0  0  0  0
    5.1680   32.2640   18.8450 C   0  0  0  0  0  0  0  0  0  0  0  0
    5.3550   31.7950   20.2590 C   0  0  0  0  0  0  0  0  0  0  0  0
    6.7200   32.1760   20.8440 C   0  0  0  0  0  0  0  0  0  0  0  0
    6.6210   32.9580   22.1580 C   0  0  0  0  0  0  0  0  0  0  0  0
    7.8100   33.8940   22.3980 C   0  0  0  0  0  0  0  0  0  0  0  0
    8.8030   33.3590   23.4340 C   0  0  0  0  0  0  0  0  0  0  0  0
   10.1430   32.9990   22.7810 C   0  0  0  0  0  0  0  0  0  0  0  0
   10.8460   31.8450   23.4930 C   0  0  0  0  0  0  0  0  0  0  0  0
   12.2950   32.1340   23.8030 C   0  0  0  0  0  0  0  0  0  0  0  0
   13.2580   31.7830   23.1390 O   0  0  0  0  0  0  0  0  0  0  0  0
   12.3910   32.8820   24.9320 O   0  0  0  0  0  0  0  0  0  0  0  0
   11.9337   31.5332   20.7286 H   0  0  0  0  0  0  0  0  0  0  0  0
   11.9286   30.6336   19.1738 H   0  0  0  0  0  0  0  0  0  0  0  0
   12.0409   32.4264   19.1738 H   0  0  0  0  0  0  0  0  0  0  0  0
    9.6763   30.6337   19.5197 H   0  0  0  0  0  0  0  0  0  0  0  0
    9.7608   32.1310   20.5641 H   0  0  0  0  0  0  0  0  0  0  0  0
    8.6409   33.0111   18.8041 H   0  0  0  0  0  0  0  0  0  0  0  0
   10.3566   33.2262   18.2192 H   0  0  0  0  0  0  0  0  0  0  0  0
    8.5209   32.2544   16.6049 H   0  0  0  0  0  0  0  0  0  0  0  0
   10.1902   31.5590   16.6527 H   0  0  0  0  0  0  0  0  0  0  0  0
    9.5258   29.6357   17.6991 H   0  0  0  0  0  0  0  0  0  0  0  0
    8.0658   30.4870   18.4596 H   0  0  0  0  0  0  0  0  0  0  0  0
    8.2078   29.3278   15.6303 H   0  0  0  0  0  0  0  0  0  0  0  0
    5.8789   29.0781   15.8285 H   0  0  0  0  0  0  0  0  0  0  0  0
    4.6902   29.4266   17.9034 H   0  0  0  0  0  0  0  0  0  0  0  0
    6.2338   29.8425   18.7558 H   0  0  0  0  0  0  0  0  0  0  0  0
    5.1312   31.9072   16.7776 H   0  0  0  0  0  0  0  0  0  0  0  0
    4.9184   33.3223   18.6784 H   0  0  0  0  0  0  0  0  0  0  0  0
    4.5688   32.2442   20.8836 H   0  0  0  0  0  0  0  0  0  0  0  0
    5.2971   30.6966   20.2504 H   0  0  0  0  0  0  0  0  0  0  0  0
    7.2900   31.2536   21.0291 H   0  0  0  0  0  0  0  0  0  0  0  0
    7.2159   32.8309   20.1125 H   0  0  0  0  0  0  0  0  0  0  0  0
    5.7010   33.5607   22.1370 H   0  0  0  0  0  0  0  0  0  0  0  0
    6.6161   32.2218   22.9753 H   0  0  0  0  0  0  0  0  0  0  0  0
    8.3414   34.0347   21.4452 H   0  0  0  0  0  0  0  0  0  0  0  0
    7.4065   34.8388   22.7912 H   0  0  0  0  0  0  0  0  0  0  0  0
    8.9725   34.1297   24.2004 H   0  0  0  0  0  0  0  0  0  0  0  0
    8.3797   32.4500   23.8863 H   0  0  0  0  0  0  0  0  0  0  0  0
    9.9602   32.7102   21.7355 H   0  0  0  0  0  0  0  0  0  0  0  0
   10.7962   33.8816   22.8469 H   0  0  0  0  0  0  0  0  0  0  0  0
   10.3194   31.6439   24.4376 H   0  0  0  0  0  0  0  0  0  0  0  0
   10.8224   30.9789   22.8153 H   0  0  0  0  0  0  0  0  0  0  0  0
  1  2  1  0
  2  3  1  0
  3  4  1  0
  4  5  1  0
  5  6  1  0
  6  7  2  0
  7  8  1  0
  8  9  1  0
  9 10  2  0
 10 11  1  0
 11 12  1  0
 12 13  1  0
 13 14  1  0
 14 15  1  0
 15 16  1  0
 16 17  1  0
 17 18  1  0
 18 19  2  0
 18 20  1  0
  1 21  1  0
  1 22  1  0
  1 23  1  0
  2 24  1  0
  2 25  1  0
  3 26  1  0
  3 27  1  0
  4 28  1  0
  4 29  1  0
  5 30  1  0
  5 31  1  0
  6 32  1  0
  7 33  1  0
  8 34  1  0
  8 35  1  0
  9 36  1  0
 10 37  1  0
 11 38  1  0
 11 39  1  0
 12 40  1  0
 12 41  1  0
 13 42  1  0
 13 43  1  0
 14 44  1  0
 14 45  1  0
 15 46  1  0
 15 47  1  0
 16 48  1  0
 16 49  1  0
 17 50  1  0
 17 51  1  0
M  CHG  1  20  -1
M  END
>  <meeko>  (8) 
{"is_sidechain": [false], "free_energy": -5.832, "intermolecular_energy": -11.25, "internal_energy": -1.954}

$$$$
linoleate_Clobe_run01
     RDKit          3D

 51 50  0  0  0  0  0  0  0  0999 V2000
   10.4220   32.9420   17.5920 C   0  0  0  0  0  0  0  0  0  0  0  0
    9.0580   32.9670   16.9210 C   0  0  0  0  0  0  0  0  0  0  0  0
    8.6150   31.6040   16.3850 C   0  0  0  0  0  0  0  0  0  0  0  0
    9.0170   30.4360   17.2910 C   0  0  0  0  0  0  0  0  0  0  0  0
    8.0240   29.2740   17.1690 C   0  0  0  0  0  0  0  0  0  0  0  0
    6.6520   29.6070   16.6470 C   0  0  0  0  0  0  0  0  0  0  0  0
    5.5780   29.9810   17.3600 C   0  0  0  0  0  0  0  0  0  0  0  0
    5.5850   30.1280   18.8550 C   0  0  0  0  0  0  0  0  0  0  0  0
    5.5360   31.5700   19.2660 C   0  0  0  0  0  0  0  0  0  0  0  0
    6.5490   32.2060   19.8740 C   0  0  0  0  0  0  0  0  0  0  0  0
    7.8580   31.5530   20.2160 C   0  0  0  0  0  0  0  0  0  0  0  0
    8.7640   32.4380   21.0790 C   0  0  0  0  0  0  0  0  0  0  0  0
   10.0290   31.7210   21.5640 C   0  0  0  0  0  0  0  0  0  0  0  0
   10.4810   32.1650   22.9590 C   0  0  0  0  0  0  0  0  0  0  0  0
   12.0020   32.1640   23.1330 C   0  0  0  0  0  0  0  0  0  0  0  0
   12.3890   32.1540   24.6170 C   0  0  0  0  0  0  0  0  0  0  0  0
   11.7290   33.2890   25.3990 C   0  0  0  0  0  0  0  0  0  0  0  0
   12.3410   33.5040   26.7620 C   0  0  0  0  0  0  0  0  0  0  0  0
   12.4820   32.6560   27.6300 O   0  0  0  0  0  0  0  0  0  0  0  0
   12.7530   34.7910   26.8910 O   0  0  0  0  0  0  0  0  0  0  0  0
   10.2933   32.9444   18.6844 H   0  0  0  0  0  0  0  0  0  0  0  0
   10.9633   32.0338   17.2885 H   0  0  0  0  0  0  0  0  0  0  0  0
   10.9963   33.8298   17.2885 H   0  0  0  0  0  0  0  0  0  0  0  0
    8.3149   33.3101   17.6559 H   0  0  0  0  0  0  0  0  0  0  0  0
    9.1352   33.6441   16.0575 H   0  0  0  0  0  0  0  0  0  0  0  0
    7.5195   31.6074   16.2854 H   0  0  0  0  0  0  0  0  0  0  0  0
    9.1190   31.4548   15.4187 H   0  0  0  0  0  0  0  0  0  0  0  0
   10.0182   30.0847   17.0009 H   0  0  0  0  0  0  0  0  0  0  0  0
    9.0168   30.7870   18.3335 H   0  0  0  0  0  0  0  0  0  0  0  0
    8.4659   28.5281   16.4920 H   0  0  0  0  0  0  0  0  0  0  0  0
    7.8632   28.9229   18.1990 H   0  0  0  0  0  0  0  0  0  0  0  0
    6.5139   29.5358   15.5580 H   0  0  0  0  0  0  0  0  0  0  0  0
    4.6426   30.1911   16.8207 H   0  0  0  0  0  0  0  0  0  0  0  0
    4.7085   29.6083   19.2694 H   0  0  0  0  0  0  0  0  0  0  0  0
    6.5179   29.6908   19.2404 H   0  0  0  0  0  0  0  0  0  0  0  0
    4.6175   32.1381   19.0571 H   0  0  0  0  0  0  0  0  0  0  0  0
    6.4133   33.2655   20.1369 H   0  0  0  0  0  0  0  0  0  0  0  0
    7.6521   30.6223   20.7649 H   0  0  0  0  0  0  0  0  0  0  0  0
    8.3876   31.3649   19.2704 H   0  0  0  0  0  0  0  0  0  0  0  0
    9.0651   33.3135   20.4850 H   0  0  0  0  0  0  0  0  0  0  0  0
    8.1875   32.7210   21.9721 H   0  0  0  0  0  0  0  0  0  0  0  0
    9.8291   30.6396   21.5896 H   0  0  0  0  0  0  0  0  0  0  0  0
   10.8372   31.9770   20.8631 H   0  0  0  0  0  0  0  0  0  0  0  0
   10.1101   33.1850   23.1377 H   0  0  0  0  0  0  0  0  0  0  0  0
   10.0708   31.4419   23.6793 H   0  0  0  0  0  0  0  0  0  0  0  0
   12.4184   31.2692   22.6473 H   0  0  0  0  0  0  0  0  0  0  0  0
   12.4064   33.0777   22.6731 H   0  0  0  0  0  0  0  0  0  0  0  0
   12.0782   31.1948   25.0566 H   0  0  0  0  0  0  0  0  0  0  0  0
   13.4784   32.2924   24.6804 H   0  0  0  0  0  0  0  0  0  0  0  0
   11.8302   34.2184   24.8194 H   0  0  0  0  0  0  0  0  0  0  0  0
   10.6757   33.0117   25.5528 H   0  0  0  0  0  0  0  0  0  0  0  0
  1  2  1  0
  2  3  1  0
  3  4  1  0
  4  5  1  0
  5  6  1  0
  6  7  2  0
  7  8  1  0
  8  9  1  0
  9 10  2  0
 10 11  1  0
 11 12  1  0
 12 13  1  0
 13 14  1  0
 14 15  1  0
 15 16  1  0
 16 17  1  0
 17 18  1  0
 18 19  2  0
 18 20  1  0
  1 21  1  0
  1 22  1  0
  1 23  1  0
  2 24  1  0
  2 25  1  0
  3 26  1  0
  3 27  1  0
  4 28  1  0
  4 29  1  0
  5 30  1  0
  5 31  1  0
  6 32  1  0
  7 33  1  0
  8 34  1  0
  8 35  1  0
  9 36  1  0
 10 37  1  0
 11 38  1  0
 11 39  1  0
 12 40  1  0
 12 41  1  0
 13 42  1  0
 13 43  1  0
 14 44  1  0
 14 45  1  0
 15 46  1  0
 15 47  1  0
 16 48  1  0
 16 49  1  0
 17 50  1  0
 17 51  1  0
M  CHG  1  20  -1
M  END
>  <meeko>  (9) 
{"is_sidechain": [false], "free_energy": -5.832, "intermolecular_energy": -11.461, "internal_energy": -1.741}

$$$$
linoleate_Clobe_run01
     RDKit          3D

 51 50  0  0  0  0  0  0  0  0999 V2000
   14.5010   32.9450   29.8740 C   0  0  0  0  0  0  0  0  0  0  0  0
   14.0060   34.2310   30.5190 C   0  0  0  0  0  0  0  0  0  0  0  0
   12.4810   34.3300   30.5940 C   0  0  0  0  0  0  0  0  0  0  0  0
   11.9360   35.6800   30.1180 C   0  0  0  0  0  0  0  0  0  0  0  0
   11.3300   35.5670   28.7140 C   0  0  0  0  0  0  0  0  0  0  0  0
   12.2950   35.5550   27.5580 C   0  0  0  0  0  0  0  0  0  0  0  0
   12.5680   34.5290   26.7360 C   0  0  0  0  0  0  0  0  0  0  0  0
   11.9230   33.1780   26.8540 C   0  0  0  0  0  0  0  0  0  0  0  0
   10.6740   33.0900   26.0280 C   0  0  0  0  0  0  0  0  0  0  0  0
   10.6520   32.6790   24.7510 C   0  0  0  0  0  0  0  0  0  0  0  0
   11.8770   32.2540   23.9910 C   0  0  0  0  0  0  0  0  0  0  0  0
   11.5760   31.8520   22.5420 C   0  0  0  0  0  0  0  0  0  0  0  0
   10.1920   32.3030   22.0630 C   0  0  0  0  0  0  0  0  0  0  0  0
    9.7130   31.5610   20.8100 C   0  0  0  0  0  0  0  0  0  0  0  0
   10.5480   31.8730   19.5650 C   0  0  0  0  0  0  0  0  0  0  0  0
    9.9180   31.2590   18.3090 C   0  0  0  0  0  0  0  0  0  0  0  0
    8.4040   31.0920   18.4380 C   0  0  0  0  0  0  0  0  0  0  0  0
    7.9050   29.7720   17.9000 C   0  0  0  0  0  0  0  0  0  0  0  0
    8.2150   29.2670   16.8330 O   0  0  0  0  0  0  0  0  0  0  0  0
    7.0660   29.1910   18.7950 O   0  0  0  0  0  0  0  0  0  0  0  0
   14.7782   32.2248   30.6578 H   0  0  0  0  0  0  0  0  0  0  0  0
   13.7031   32.5176   29.2489 H   0  0  0  0  0  0  0  0  0  0  0  0
   15.3795   33.1629   29.2489 H   0  0  0  0  0  0  0  0  0  0  0  0
   14.4089   34.2850   31.5411 H   0  0  0  0  0  0  0  0  0  0  0  0
   14.3530   35.0629   29.8885 H   0  0  0  0  0  0  0  0  0  0  0  0
   12.0486   33.5379   29.9651 H   0  0  0  0  0  0  0  0  0  0  0  0
   12.1996   34.2204   31.6517 H   0  0  0  0  0  0  0  0  0  0  0  0
   11.1591   36.0208   30.8182 H   0  0  0  0  0  0  0  0  0  0  0  0
   12.7674   36.3994   30.0827 H   0  0  0  0  0  0  0  0  0  0  0  0
   10.7521   34.6319   28.6750 H   0  0  0  0  0  0  0  0  0  0  0  0
   10.7342   36.4823   28.5827 H   0  0  0  0  0  0  0  0  0  0  0  0
   12.8374   36.4924   27.3653 H   0  0  0  0  0  0  0  0  0  0  0  0
   13.3034   34.6865   25.9333 H   0  0  0  0  0  0  0  0  0  0  0  0
   12.6334   32.4117   26.5102 H   0  0  0  0  0  0  0  0  0  0  0  0
   11.6515   33.0165   27.9077 H   0  0  0  0  0  0  0  0  0  0  0  0
    9.7214   33.3790   26.4961 H   0  0  0  0  0  0  0  0  0  0  0  0
    9.6830   32.6516   24.2311 H   0  0  0  0  0  0  0  0  0  0  0  0
   12.5909   33.0908   23.9812 H   0  0  0  0  0  0  0  0  0  0  0  0
   12.2875   31.3687   24.4987 H   0  0  0  0  0  0  0  0  0  0  0  0
   12.3363   32.3051   21.8888 H   0  0  0  0  0  0  0  0  0  0  0  0
   11.5938   30.7530   22.4983 H   0  0  0  0  0  0  0  0  0  0  0  0
    9.4678   32.1262   22.8718 H   0  0  0  0  0  0  0  0  0  0  0  0
   10.2688   33.3687   21.8014 H   0  0  0  0  0  0  0  0  0  0  0  0
    9.7652   30.4794   21.0034 H   0  0  0  0  0  0  0  0  0  0  0  0
    8.6855   31.8964   20.6056 H   0  0  0  0  0  0  0  0  0  0  0  0
   10.6107   32.9639   19.4387 H   0  0  0  0  0  0  0  0  0  0  0  0
   11.5505   31.4408   19.6997 H   0  0  0  0  0  0  0  0  0  0  0  0
   10.1292   31.9147   17.4514 H   0  0  0  0  0  0  0  0  0  0  0  0
   10.3548   30.2591   18.1695 H   0  0  0  0  0  0  0  0  0  0  0  0
    8.1337   31.1609   19.5020 H   0  0  0  0  0  0  0  0  0  0  0  0
    7.9345   31.8878   17.8411 H   0  0  0  0  0  0  0  0  0  0  0  0
  1  2  1  0
  2  3  1  0
  3  4  1  0
  4  5  1  0
  5  6  1  0
  6  7  2  0
  7  8  1  0
  8  9  1  0
  9 10  2  0
 10 11  1  0
 11 12  1  0
 12 13  1  0
 13 14  1  0
 14 15  1  0
 15 16  1  0
 16 17  1  0
 17 18  1  0
 18 19  2  0
 18 20  1  0
  1 21  1  0
  1 22  1  0
  1 23  1  0
  2 24  1  0
  2 25  1  0
  3 26  1  0
  3 27  1  0
  4 28  1  0
  4 29  1  0
  5 30  1  0
  5 31  1  0
  6 32  1  0
  7 33  1  0
  8 34  1  0
  8 35  1  0
  9 36  1  0
 10 37  1  0
 11 38  1  0
 11 39  1  0
 12 40  1  0
 12 41  1  0
 13 42  1  0
 13 43  1  0
 14 44  1  0
 14 45  1  0
 15 46  1  0
 15 47  1  0
 16 48  1  0
 16 49  1  0
 17 50  1  0
 17 51  1  0
M  CHG  1  20  -1
M  END
>  <meeko>  (10) 
{"is_sidechain": [false], "free_energy": -5.816, "intermolecular_energy": -11.843, "internal_energy": -1.331}

$$$$
linoleate_Clobe_run01
     RDKit          3D

 51 50  0  0  0  0  0  0  0  0999 V2000
    8.1910   29.2150   17.2520 C   0  0  0  0  0  0  0  0  0  0  0  0
    7.0090   30.0450   16.7770 C   0  0  0  0  0  0  0  0  0  0  0  0
    5.7790   29.9300   17.6800 C   0  0  0  0  0  0  0  0  0  0  0  0
    4.8070   31.1040   17.5340 C   0  0  0  0  0  0  0  0  0  0  0  0
    5.1500   32.2310   18.5170 C   0  0  0  0  0  0  0  0  0  0  0  0
    5.5150   31.8210   19.9180 C   0  0  0  0  0  0  0  0  0  0  0  0
    6.7320   31.8510   20.4850 C   0  0  0  0  0  0  0  0  0  0  0  0
    7.9680   32.3180   19.7710 C   0  0  0  0  0  0  0  0  0  0  0  0
    9.1720   31.5210   20.1770 C   0  0  0  0  0  0  0  0  0  0  0  0
    9.8550   31.7300   21.3130 C   0  0  0  0  0  0  0  0  0  0  0  0
    9.4960   32.7850   22.3200 C   0  0  0  0  0  0  0  0  0  0  0  0
   10.1470   32.5580   23.6890 C   0  0  0  0  0  0  0  0  0  0  0  0
   11.6430   32.2370   23.6030 C   0  0  0  0  0  0  0  0  0  0  0  0
   12.4170   32.6060   24.8730 C   0  0  0  0  0  0  0  0  0  0  0  0
   11.5120   33.0170   26.0370 C   0  0  0  0  0  0  0  0  0  0  0  0
   11.8450   34.4330   26.5230 C   0  0  0  0  0  0  0  0  0  0  0  0
   10.5990   35.2190   26.9270 C   0  0  0  0  0  0  0  0  0  0  0  0
   10.2920   35.1270   28.4020 C   0  0  0  0  0  0  0  0  0  0  0  0
   10.5030   34.1640   29.1230 O   0  0  0  0  0  0  0  0  0  0  0  0
    9.7630   36.2970   28.8430 O   0  0  0  0  0  0  0  0  0  0  0  0
    8.2109   29.2010   18.3517 H   0  0  0  0  0  0  0  0  0  0  0  0
    8.0925   28.1867   16.8740 H   0  0  0  0  0  0  0  0  0  0  0  0
    9.1248   29.6568   16.8740 H   0  0  0  0  0  0  0  0  0  0  0  0
    7.3169   31.1004   16.7411 H   0  0  0  0  0  0  0  0  0  0  0  0
    6.7207   29.6601   15.7877 H   0  0  0  0  0  0  0  0  0  0  0  0
    5.2457   29.0019   17.4266 H   0  0  0  0  0  0  0  0  0  0  0  0
    6.1376   29.9321   18.7199 H   0  0  0  0  0  0  0  0  0  0  0  0
    4.8655   31.4931   16.5068 H   0  0  0  0  0  0  0  0  0  0  0  0
    3.7907   30.7455   17.7545 H   0  0  0  0  0  0  0  0  0  0  0  0
    6.0022   32.7881   18.1005 H   0  0  0  0  0  0  0  0  0  0  0  0
    4.2237   32.8152   18.6200 H   0  0  0  0  0  0  0  0  0  0  0  0
    4.6917   31.4553   20.5493 H   0  0  0  0  0  0  0  0  0  0  0  0
    6.8287   31.5156   21.5281 H   0  0  0  0  0  0  0  0  0  0  0  0
    7.8168   32.2098   18.6868 H   0  0  0  0  0  0  0  0  0  0  0  0
    8.1444   33.3702   20.0389 H   0  0  0  0  0  0  0  0  0  0  0  0
    9.5145   30.7198   19.5055 H   0  0  0  0  0  0  0  0  0  0  0  0
   10.7275   31.0924   21.5184 H   0  0  0  0  0  0  0  0  0  0  0  0
    9.8232   33.7620   21.9348 H   0  0  0  0  0  0  0  0  0  0  0  0
    8.4064   32.7423   22.4646 H   0  0  0  0  0  0  0  0  0  0  0  0
   10.0195   33.4693   24.2917 H   0  0  0  0  0  0  0  0  0  0  0  0
    9.6526   31.6873   24.1445 H   0  0  0  0  0  0  0  0  0  0  0  0
   11.7587   31.1577   23.4251 H   0  0  0  0  0  0  0  0  0  0  0  0
   12.0585   32.8398   22.7820 H   0  0  0  0  0  0  0  0  0  0  0  0
   13.0121   31.7349   25.1844 H   0  0  0  0  0  0  0  0  0  0  0  0
   13.0476   33.4737   24.6291 H   0  0  0  0  0  0  0  0  0  0  0  0
   10.4639   32.9887   25.7043 H   0  0  0  0  0  0  0  0  0  0  0  0
   11.6731   32.3156   26.8689 H   0  0  0  0  0  0  0  0  0  0  0  0
   12.5137   34.3595   27.3933 H   0  0  0  0  0  0  0  0  0  0  0  0
   12.3239   34.9690   25.6903 H   0  0  0  0  0  0  0  0  0  0  0  0
   10.7529   36.2767   26.6670 H   0  0  0  0  0  0  0  0  0  0  0  0
    9.7464   34.7814   26.3871 H   0  0  0  0  0  0  0  0  0  0  0  0
  1  2  1  0
  2  3  1  0
  3  4  1  0
  4  5  1  0
  5  6  1  0
  6  7  2  0
  7  8  1  0
  8  9  1  0
  9 10  2  0
 10 11  1  0
 11 12  1  0
 12 13  1  0
 13 14  1  0
 14 15  1  0
 15 16  1  0
 16 17  1  0
 17 18  1  0
 18 19  2  0
 18 20  1  0
  1 21  1  0
  1 22  1  0
  1 23  1  0
  2 24  1  0
  2 25  1  0
  3 26  1  0
  3 27  1  0
  4 28  1  0
  4 29  1  0
  5 30  1  0
  5 31  1  0
  6 32  1  0
  7 33  1  0
  8 34  1  0
  8 35  1  0
  9 36  1  0
 10 37  1  0
 11 38  1  0
 11 39  1  0
 12 40  1  0
 12 41  1  0
 13 42  1  0
 13 43  1  0
 14 44  1  0
 14 45  1  0
 15 46  1  0
 15 47  1  0
 16 48  1  0
 16 49  1  0
 17 50  1  0
 17 51  1  0
M  CHG  1  20  -1
M  END
>  <meeko>  (11) 
{"is_sidechain": [false], "free_energy": -5.749, "intermolecular_energy": -11.762, "internal_energy": -1.291}

$$$$
linoleate_Clobe_run01
     RDKit          3D

 51 50  0  0  0  0  0  0  0  0999 V2000
    5.2450   32.9890   17.3040 C   0  0  0  0  0  0  0  0  0  0  0  0
    4.5810   31.7220   17.8210 C   0  0  0  0  0  0  0  0  0  0  0  0
    5.3070   31.0930   19.0120 C   0  0  0  0  0  0  0  0  0  0  0  0
    5.8460   32.1240   20.0080 C   0  0  0  0  0  0  0  0  0  0  0  0
    5.3860   31.8060   21.4350 C   0  0  0  0  0  0  0  0  0  0  0  0
    5.5240   32.9050   22.4540 C   0  0  0  0  0  0  0  0  0  0  0  0
    6.6400   33.5740   22.7840 C   0  0  0  0  0  0  0  0  0  0  0  0
    7.9810   33.3100   22.1590 C   0  0  0  0  0  0  0  0  0  0  0  0
    9.0890   33.4320   23.1630 C   0  0  0  0  0  0  0  0  0  0  0  0
   10.1270   32.5840   23.2330 C   0  0  0  0  0  0  0  0  0  0  0  0
   10.3080   31.4090   22.3150 C   0  0  0  0  0  0  0  0  0  0  0  0
   11.5290   31.5450   21.3980 C   0  0  0  0  0  0  0  0  0  0  0  0
   11.1630   31.6510   19.9130 C   0  0  0  0  0  0  0  0  0  0  0  0
    9.6590   31.5290   19.6490 C   0  0  0  0  0  0  0  0  0  0  0  0
    9.1780   32.3820   18.4720 C   0  0  0  0  0  0  0  0  0  0  0  0
    9.5220   31.7180   17.1330 C   0  0  0  0  0  0  0  0  0  0  0  0
    8.2860   31.1740   16.4170 C   0  0  0  0  0  0  0  0  0  0  0  0
    7.9770   29.7400   16.7740 C   0  0  0  0  0  0  0  0  0  0  0  0
    8.6780   28.9980   17.4440 O   0  0  0  0  0  0  0  0  0  0  0  0
    6.7720   29.3810   16.2630 O   0  0  0  0  0  0  0  0  0  0  0  0
    5.5687   33.6067   18.1547 H   0  0  0  0  0  0  0  0  0  0  0  0
    6.1188   32.7214   16.6917 H   0  0  0  0  0  0  0  0  0  0  0  0
    4.5277   33.5552   16.6917 H   0  0  0  0  0  0  0  0  0  0  0  0
    3.5544   31.9684   18.1300 H   0  0  0  0  0  0  0  0  0  0  0  0
    4.6062   30.9873   17.0028 H   0  0  0  0  0  0  0  0  0  0  0  0
    4.6036   30.4324   19.5400 H   0  0  0  0  0  0  0  0  0  0  0  0
    6.1722   30.5438   18.6123 H   0  0  0  0  0  0  0  0  0  0  0  0
    6.9455   32.1150   19.9746 H   0  0  0  0  0  0  0  0  0  0  0  0
    5.4586   33.1150   19.7289 H   0  0  0  0  0  0  0  0  0  0  0  0
    4.3228   31.5280   21.3876 H   0  0  0  0  0  0  0  0  0  0  0  0
    6.0570   31.0064   21.7819 H   0  0  0  0  0  0  0  0  0  0  0  0
    4.6067   33.1925   22.9887 H   0  0  0  0  0  0  0  0  0  0  0  0
    6.5692   34.3573   23.5530 H   0  0  0  0  0  0  0  0  0  0  0  0
    7.9869   32.2921   21.7421 H   0  0  0  0  0  0  0  0  0  0  0  0
    8.1469   34.0575   21.3693 H   0  0  0  0  0  0  0  0  0  0  0  0
    9.0484   34.2632   23.8823 H   0  0  0  0  0  0  0  0  0  0  0  0
   10.8887   32.7596   24.0069 H   0  0  0  0  0  0  0  0  0  0  0  0
   10.4284   30.5024   22.9263 H   0  0  0  0  0  0  0  0  0  0  0  0
    9.4181   31.3559   21.6706 H   0  0  0  0  0  0  0  0  0  0  0  0
   12.0833   32.4503   21.6865 H   0  0  0  0  0  0  0  0  0  0  0  0
   12.1320   30.6332   21.5208 H   0  0  0  0  0  0  0  0  0  0  0  0
   11.5052   32.6268   19.5379 H   0  0  0  0  0  0  0  0  0  0  0  0
   11.6534   30.8129   19.3962 H   0  0  0  0  0  0  0  0  0  0  0  0
    9.4269   30.4755   19.4341 H   0  0  0  0  0  0  0  0  0  0  0  0
    9.1405   31.8935   20.5480 H   0  0  0  0  0  0  0  0  0  0  0  0
    8.0874   32.5076   18.5412 H   0  0  0  0  0  0  0  0  0  0  0  0
    9.6829   33.3582   18.5182 H   0  0  0  0  0  0  0  0  0  0  0  0
   10.0070   32.4621   16.4841 H   0  0  0  0  0  0  0  0  0  0  0  0
   10.1892   30.8687   17.3418 H   0  0  0  0  0  0  0  0  0  0  0  0
    7.4212   31.7967   16.6898 H   0  0  0  0  0  0  0  0  0  0  0  0
    8.4925   31.2056   15.3370 H   0  0  0  0  0  0  0  0  0  0  0  0
  1  2  1  0
  2  3  1  0
  3  4  1  0
  4  5  1  0
  5  6  1  0
  6  7  2  0
  7  8  1  0
  8  9  1  0
  9 10  2  0
 10 11  1  0
 11 12  1  0
 12 13  1  0
 13 14  1  0
 14 15  1  0
 15 16  1  0
 16 17  1  0
 17 18  1  0
 18 19  2  0
 18 20  1  0
  1 21  1  0
  1 22  1  0
  1 23  1  0
  2 24  1  0
  2 25  1  0
  3 26  1  0
  3 27  1  0
  4 28  1  0
  4 29  1  0
  5 30  1  0
  5 31  1  0
  6 32  1  0
  7 33  1  0
  8 34  1  0
  8 35  1  0
  9 36  1  0
 10 37  1  0
 11 38  1  0
 11 39  1  0
 12 40  1  0
 12 41  1  0
 13 42  1  0
 13 43  1  0
 14 44  1  0
 14 45  1  0
 15 46  1  0
 15 47  1  0
 16 48  1  0
 16 49  1  0
 17 50  1  0
 17 51  1  0
M  CHG  1  20  -1
M  END
>  <meeko>  (12) 
{"is_sidechain": [false], "free_energy": -5.746, "intermolecular_energy": -11.116, "internal_energy": -1.931}

$$$$
linoleate_Clobe_run01
     RDKit          3D

 51 50  0  0  0  0  0  0  0  0999 V2000
    9.8400   35.9010   29.5360 C   0  0  0  0  0  0  0  0  0  0  0  0
   10.2440   35.3610   30.8990 C   0  0  0  0  0  0  0  0  0  0  0  0
   11.5600   34.5810   30.8810 C   0  0  0  0  0  0  0  0  0  0  0  0
   12.7550   35.4160   30.4130 C   0  0  0  0  0  0  0  0  0  0  0  0
   13.4040   34.8020   29.1670 C   0  0  0  0  0  0  0  0  0  0  0  0
   13.0430   35.4150   27.8410 C   0  0  0  0  0  0  0  0  0  0  0  0
   12.4240   34.8200   26.8090 C   0  0  0  0  0  0  0  0  0  0  0  0
   11.9810   33.3850   26.8240 C   0  0  0  0  0  0  0  0  0  0  0  0
   10.5290   33.2540   26.4700 C   0  0  0  0  0  0  0  0  0  0  0  0
   10.0890   32.8390   25.2730 C   0  0  0  0  0  0  0  0  0  0  0  0
   10.9950   32.4540   24.1380 C   0  0  0  0  0  0  0  0  0  0  0  0
   10.3020   32.5000   22.7720 C   0  0  0  0  0  0  0  0  0  0  0  0
   10.9370   31.5630   21.7380 C   0  0  0  0  0  0  0  0  0  0  0  0
   10.1950   31.5480   20.3980 C   0  0  0  0  0  0  0  0  0  0  0  0
    8.6950   31.8270   20.5310 C   0  0  0  0  0  0  0  0  0  0  0  0
    7.9320   31.3500   19.2890 C   0  0  0  0  0  0  0  0  0  0  0  0
    8.8660   30.9430   18.1500 C   0  0  0  0  0  0  0  0  0  0  0  0
    8.3420   29.7830   17.3390 C   0  0  0  0  0  0  0  0  0  0  0  0
    7.9670   28.7070   17.7800 O   0  0  0  0  0  0  0  0  0  0  0  0
    8.3140   30.1090   16.0220 O   0  0  0  0  0  0  0  0  0  0  0  0
    9.1858   36.7755   29.6673 H   0  0  0  0  0  0  0  0  0  0  0  0
   10.7402   36.1971   28.9774 H   0  0  0  0  0  0  0  0  0  0  0  0
    9.3019   35.1210   28.9774 H   0  0  0  0  0  0  0  0  0  0  0  0
   10.3513   36.2089   31.5915 H   0  0  0  0  0  0  0  0  0  0  0  0
    9.4571   34.6606   31.2156 H   0  0  0  0  0  0  0  0  0  0  0  0
   11.7649   34.2191   31.8994 H   0  0  0  0  0  0  0  0  0  0  0  0
   11.4390   33.7562   30.1633 H   0  0  0  0  0  0  0  0  0  0  0  0
   12.4110   36.4332   30.1745 H   0  0  0  0  0  0  0  0  0  0  0  0
   13.5020   35.4395   31.2201 H   0  0  0  0  0  0  0  0  0  0  0  0
   14.4945   34.8839   29.2854 H   0  0  0  0  0  0  0  0  0  0  0  0
   13.0208   33.7719   29.1213 H   0  0  0  0  0  0  0  0  0  0  0  0
   13.3176   36.4710   27.7014 H   0  0  0  0  0  0  0  0  0  0  0  0
   12.2310   35.4151   25.9043 H   0  0  0  0  0  0  0  0  0  0  0  0
   12.5791   32.8186   26.0950 H   0  0  0  0  0  0  0  0  0  0  0  0
   12.1254   32.9899   27.8404 H   0  0  0  0  0  0  0  0  0  0  0  0
    9.7829   33.5130   27.2357 H   0  0  0  0  0  0  0  0  0  0  0  0
    9.0025   32.7769   25.1130 H   0  0  0  0  0  0  0  0  0  0  0  0
   11.8485   33.1477   24.1209 H   0  0  0  0  0  0  0  0  0  0  0  0
   11.3116   31.4147   24.3098 H   0  0  0  0  0  0  0  0  0  0  0  0
    9.2490   32.2110   22.9048 H   0  0  0  0  0  0  0  0  0  0  0  0
   10.4051   33.5259   22.3887 H   0  0  0  0  0  0  0  0  0  0  0  0
   11.9723   31.8894   21.5602 H   0  0  0  0  0  0  0  0  0  0  0  0
   10.8887   30.5437   22.1487 H   0  0  0  0  0  0  0  0  0  0  0  0
   10.6363   32.3165   19.7463 H   0  0  0  0  0  0  0  0  0  0  0  0
   10.3016   30.5366   19.9787 H   0  0  0  0  0  0  0  0  0  0  0  0
    8.3084   31.2987   21.4150 H   0  0  0  0  0  0  0  0  0  0  0  0
    8.5495   32.9124   20.6347 H   0  0  0  0  0  0  0  0  0  0  0  0
    7.3142   30.4830   19.5657 H   0  0  0  0  0  0  0  0  0  0  0  0
    7.3153   32.1883   18.9327 H   0  0  0  0  0  0  0  0  0  0  0  0
    8.9987   31.8060   17.4810 H   0  0  0  0  0  0  0  0  0  0  0  0
    9.8156   30.6230   18.6036 H   0  0  0  0  0  0  0  0  0  0  0  0
  1  2  1  0
  2  3  1  0
  3  4  1  0
  4  5  1  0
  5  6  1  0
  6  7  2  0
  7  8  1  0
  8  9  1  0
  9 10  2  0
 10 11  1  0
 11 12  1  0
 12 13  1  0
 13 14  1  0
 14 15  1  0
 15 16  1  0
 16 17  1  0
 17 18  1  0
 18 19  2  0
 18 20  1  0
  1 21  1  0
  1 22  1  0
  1 23  1  0
  2 24  1  0
  2 25  1  0
  3 26  1  0
  3 27  1  0
  4 28  1  0
  4 29  1  0
  5 30  1  0
  5 31  1  0
  6 32  1  0
  7 33  1  0
  8 34  1  0
  8 35  1  0
  9 36  1  0
 10 37  1  0
 11 38  1  0
 11 39  1  0
 12 40  1  0
 12 41  1  0
 13 42  1  0
 13 43  1  0
 14 44  1  0
 14 45  1  0
 15 46  1  0
 15 47  1  0
 16 48  1  0
 16 49  1  0
 17 50  1  0
 17 51  1  0
M  CHG  1  20  -1
M  END
>  <meeko>  (13) 
{"is_sidechain": [false], "free_energy": -5.721, "intermolecular_energy": -11.786, "internal_energy": -1.215}

$$$$
linoleate_Clobe_run01
     RDKit          3D

 51 50  0  0  0  0  0  0  0  0999 V2000
    6.8260   29.5840   16.7400 C   0  0  0  0  0  0  0  0  0  0  0  0
    7.1240   30.0150   18.1680 C   0  0  0  0  0  0  0  0  0  0  0  0
    6.2980   31.2200   18.6270 C   0  0  0  0  0  0  0  0  0  0  0  0
    6.1590   32.3040   17.5550 C   0  0  0  0  0  0  0  0  0  0  0  0
    7.4030   33.2000   17.5100 C   0  0  0  0  0  0  0  0  0  0  0  0
    8.3720   32.9580   16.3840 C   0  0  0  0  0  0  0  0  0  0  0  0
    9.7110   32.8930   16.4610 C   0  0  0  0  0  0  0  0  0  0  0  0
   10.4770   33.0600   17.7420 C   0  0  0  0  0  0  0  0  0  0  0  0
   10.7650   31.7370   18.3880 C   0  0  0  0  0  0  0  0  0  0  0  0
   10.2810   31.3720   19.5850 C   0  0  0  0  0  0  0  0  0  0  0  0
    9.3900   32.2410   20.4260 C   0  0  0  0  0  0  0  0  0  0  0  0
    9.7180   32.1720   21.9210 C   0  0  0  0  0  0  0  0  0  0  0  0
   11.1870   31.8400   22.2050 C   0  0  0  0  0  0  0  0  0  0  0  0
   11.6280   32.2080   23.6260 C   0  0  0  0  0  0  0  0  0  0  0  0
   10.4770   32.2180   24.6350 C   0  0  0  0  0  0  0  0  0  0  0  0
   10.6540   33.3410   25.6640 C   0  0  0  0  0  0  0  0  0  0  0  0
   12.0580   33.3630   26.2670 C   0  0  0  0  0  0  0  0  0  0  0  0
   12.0830   32.9780   27.7270 C   0  0  0  0  0  0  0  0  0  0  0  0
   13.0770   32.8890   28.4310 O   0  0  0  0  0  0  0  0  0  0  0  0
   10.8190   32.7660   28.1760 O   0  0  0  0  0  0  0  0  0  0  0  0
    6.2005   28.6793   16.7530 H   0  0  0  0  0  0  0  0  0  0  0  0
    6.2923   30.3913   16.2171 H   0  0  0  0  0  0  0  0  0  0  0  0
    7.7698   29.3697   16.2171 H   0  0  0  0  0  0  0  0  0  0  0  0
    6.9095   29.1700   18.8387 H   0  0  0  0  0  0  0  0  0  0  0  0
    8.1815   30.3159   18.2013 H   0  0  0  0  0  0  0  0  0  0  0  0
    5.2921   30.8694   18.9012 H   0  0  0  0  0  0  0  0  0  0  0  0
    6.8270   31.6713   19.4794 H   0  0  0  0  0  0  0  0  0  0  0  0
    6.0264   31.8241   16.5741 H   0  0  0  0  0  0  0  0  0  0  0  0
    5.2877   32.9287   17.8012 H   0  0  0  0  0  0  0  0  0  0  0  0
    7.0600   34.2425   17.4358 H   0  0  0  0  0  0  0  0  0  0  0  0
    7.9620   32.9634   18.4273 H   0  0  0  0  0  0  0  0  0  0  0  0
    7.9336   32.8186   15.3848 H   0  0  0  0  0  0  0  0  0  0  0  0
   10.2772   32.7075   15.5363 H   0  0  0  0  0  0  0  0  0  0  0  0
   11.4291   33.5666   17.5255 H   0  0  0  0  0  0  0  0  0  0  0  0
    9.8645   33.6558   18.4347 H   0  0  0  0  0  0  0  0  0  0  0  0
   11.4093   31.0261   17.8500 H   0  0  0  0  0  0  0  0  0  0  0  0
   10.5524   30.3791   19.9729 H   0  0  0  0  0  0  0  0  0  0  0  0
    9.5007   33.2830   20.0913 H   0  0  0  0  0  0  0  0  0  0  0  0
    8.3608   31.8740   20.2994 H   0  0  0  0  0  0  0  0  0  0  0  0
    9.4865   33.1470   22.3745 H   0  0  0  0  0  0  0  0  0  0  0  0
    9.1119   31.3606   22.3503 H   0  0  0  0  0  0  0  0  0  0  0  0
   11.3345   30.7593   22.0625 H   0  0  0  0  0  0  0  0  0  0  0  0
   11.7961   32.4367   21.5101 H   0  0  0  0  0  0  0  0  0  0  0  0
   12.3778   31.4755   23.9593 H   0  0  0  0  0  0  0  0  0  0  0  0
   12.0345   33.2294   23.5862 H   0  0  0  0  0  0  0  0  0  0  0  0
    9.5294   32.3696   24.0974 H   0  0  0  0  0  0  0  0  0  0  0  0
   10.4704   31.2551   25.1667 H   0  0  0  0  0  0  0  0  0  0  0  0
   10.4667   34.3057   25.1697 H   0  0  0  0  0  0  0  0  0  0  0  0
    9.9406   33.1618   26.4819 H   0  0  0  0  0  0  0  0  0  0  0  0
   12.6899   32.6570   25.7081 H   0  0  0  0  0  0  0  0  0  0  0  0
   12.4295   34.3958   26.1943 H   0  0  0  0  0  0  0  0  0  0  0  0
  1  2  1  0
  2  3  1  0
  3  4  1  0
  4  5  1  0
  5  6  1  0
  6  7  2  0
  7  8  1  0
  8  9  1  0
  9 10  2  0
 10 11  1  0
 11 12  1  0
 12 13  1  0
 13 14  1  0
 14 15  1  0
 15 16  1  0
 16 17  1  0
 17 18  1  0
 18 19  2  0
 18 20  1  0
  1 21  1  0
  1 22  1  0
  1 23  1  0
  2 24  1  0
  2 25  1  0
  3 26  1  0
  3 27  1  0
  4 28  1  0
  4 29  1  0
  5 30  1  0
  5 31  1  0
  6 32  1  0
  7 33  1  0
  8 34  1  0
  8 35  1  0
  9 36  1  0
 10 37  1  0
 11 38  1  0
 11 39  1  0
 12 40  1  0
 12 41  1  0
 13 42  1  0
 13 43  1  0
 14 44  1  0
 14 45  1  0
 15 46  1  0
 15 47  1  0
 16 48  1  0
 16 49  1  0
 17 50  1  0
 17 51  1  0
M  CHG  1  20  -1
M  END
>  <meeko>  (14) 
{"is_sidechain": [false], "free_energy": -5.682, "intermolecular_energy": -11.007, "internal_energy": -1.923}

$$$$
linoleate_Clobe_run01
     RDKit          3D

 51 50  0  0  0  0  0  0  0  0999 V2000
   12.7260   35.4300   27.3300 C   0  0  0  0  0  0  0  0  0  0  0  0
   12.2890   34.1180   27.9630 C   0  0  0  0  0  0  0  0  0  0  0  0
   11.9540   33.0290   26.9410 C   0  0  0  0  0  0  0  0  0  0  0  0
   10.4800   33.0220   26.5230 C   0  0  0  0  0  0  0  0  0  0  0  0
   10.3380   33.1450   25.0010 C   0  0  0  0  0  0  0  0  0  0  0  0
   11.0960   32.1490   24.1650 C   0  0  0  0  0  0  0  0  0  0  0  0
   10.9580   31.9170   22.8500 C   0  0  0  0  0  0  0  0  0  0  0  0
    9.9800   32.6490   21.9770 C   0  0  0  0  0  0  0  0  0  0  0  0
    9.2200   31.7060   21.0910 C   0  0  0  0  0  0  0  0  0  0  0  0
    9.5790   31.4150   19.8310 C   0  0  0  0  0  0  0  0  0  0  0  0
   10.7870   31.9950   19.1530 C   0  0  0  0  0  0  0  0  0  0  0  0
   10.4860   32.5430   17.7530 C   0  0  0  0  0  0  0  0  0  0  0  0
    9.1510   33.2910   17.6690 C   0  0  0  0  0  0  0  0  0  0  0  0
    8.2020   32.7190   16.6110 C   0  0  0  0  0  0  0  0  0  0  0  0
    8.6350   31.3490   16.0830 C   0  0  0  0  0  0  0  0  0  0  0  0
    7.6730   30.2490   16.5450 C   0  0  0  0  0  0  0  0  0  0  0  0
    6.5660   30.7850   17.4530 C   0  0  0  0  0  0  0  0  0  0  0  0
    6.3230   29.9190   18.6650 C   0  0  0  0  0  0  0  0  0  0  0  0
    7.0640   29.0440   19.0860 O   0  0  0  0  0  0  0  0  0  0  0  0
    5.1560   30.2700   19.2630 O   0  0  0  0  0  0  0  0  0  0  0  0
   12.9678   36.1558   28.1204 H   0  0  0  0  0  0  0  0  0  0  0  0
   13.6153   35.2577   26.7059 H   0  0  0  0  0  0  0  0  0  0  0  0
   11.9110   35.8254   26.7059 H   0  0  0  0  0  0  0  0  0  0  0  0
   13.1035   33.7533   28.6061 H   0  0  0  0  0  0  0  0  0  0  0  0
   11.3694   34.3230   28.5306 H   0  0  0  0  0  0  0  0  0  0  0  0
   12.5703   33.1904   26.0443 H   0  0  0  0  0  0  0  0  0  0  0  0
   12.1616   32.0599   27.4181 H   0  0  0  0  0  0  0  0  0  0  0  0
   10.0176   32.0798   26.8521 H   0  0  0  0  0  0  0  0  0  0  0  0
    9.9795   33.8822   26.9916 H   0  0  0  0  0  0  0  0  0  0  0  0
    9.2706   33.0400   24.7570 H   0  0  0  0  0  0  0  0  0  0  0  0
   10.7749   34.1227   24.7497 H   0  0  0  0  0  0  0  0  0  0  0  0
   11.8481   31.5426   24.6910 H   0  0  0  0  0  0  0  0  0  0  0  0
   11.5957   31.1494   22.3872 H   0  0  0  0  0  0  0  0  0  0  0  0
    9.2676   33.1918   22.6156 H   0  0  0  0  0  0  0  0  0  0  0  0
   10.5424   33.3453   21.3376 H   0  0  0  0  0  0  0  0  0  0  0  0
    8.3175   31.2260   21.4973 H   0  0  0  0  0  0  0  0  0  0  0  0
    8.9528   30.7116   19.2625 H   0  0  0  0  0  0  0  0  0  0  0  0
   11.1767   32.8153   19.7737 H   0  0  0  0  0  0  0  0  0  0  0  0
   11.5195   31.1826   19.0367 H   0  0  0  0  0  0  0  0  0  0  0  0
   11.2924   33.2348   17.4680 H   0  0  0  0  0  0  0  0  0  0  0  0
   10.4198   31.6809   17.0729 H   0  0  0  0  0  0  0  0  0  0  0  0
    8.6561   33.2335   18.6497 H   0  0  0  0  0  0  0  0  0  0  0  0
    9.3760   34.3279   17.3787 H   0  0  0  0  0  0  0  0  0  0  0  0
    7.2013   32.6204   17.0570 H   0  0  0  0  0  0  0  0  0  0  0  0
    8.2104   33.4133   15.7578 H   0  0  0  0  0  0  0  0  0  0  0  0
    8.6482   31.3758   14.9834 H   0  0  0  0  0  0  0  0  0  0  0  0
    9.6371   31.1241   16.4770 H   0  0  0  0  0  0  0  0  0  0  0  0
    7.2111   29.7889   15.6590 H   0  0  0  0  0  0  0  0  0  0  0  0
    8.2550   29.5162   17.1232 H   0  0  0  0  0  0  0  0  0  0  0  0
    6.8493   31.7919   17.7933 H   0  0  0  0  0  0  0  0  0  0  0  0
    5.6361   30.7952   16.8655 H   0  0  0  0  0  0  0  0  0  0  0  0
  1  2  1  0
  2  3  1  0
  3  4  1  0
  4  5  1  0
  5  6  1  0
  6  7  2  0
  7  8  1  0
  8  9  1  0
  9 10  2  0
 10 11  1  0
 11 12  1  0
 12 13  1  0
 13 14  1  0
 14 15  1  0
 15 16  1  0
 16 17  1  0
 17 18  1  0
 18 19  2  0
 18 20  1  0
  1 21  1  0
  1 22  1  0
  1 23  1  0
  2 24  1  0
  2 25  1  0
  3 26  1  0
  3 27  1  0
  4 28  1  0
  4 29  1  0
  5 30  1  0
  5 31  1  0
  6 32  1  0
  7 33  1  0
  8 34  1  0
  8 35  1  0
  9 36  1  0
 10 37  1  0
 11 38  1  0
 11 39  1  0
 12 40  1  0
 12 41  1  0
 13 42  1  0
 13 43  1  0
 14 44  1  0
 14 45  1  0
 15 46  1  0
 15 47  1  0
 16 48  1  0
 16 49  1  0
 17 50  1  0
 17 51  1  0
M  CHG  1  20  -1
M  END
>  <meeko>  (15) 
{"is_sidechain": [false], "free_energy": -5.659, "intermolecular_energy": -11.371, "internal_energy": -1.518}

$$$$
linoleate_Clobe_run01
     RDKit          3D

 51 50  0  0  0  0  0  0  0  0999 V2000
    5.5300   30.1460   17.1650 C   0  0  0  0  0  0  0  0  0  0  0  0
    6.8930   29.5790   16.7980 C   0  0  0  0  0  0  0  0  0  0  0  0
    8.0060   29.9890   17.7660 C   0  0  0  0  0  0  0  0  0  0  0  0
    7.4830   30.6230   19.0580 C   0  0  0  0  0  0  0  0  0  0  0  0
    8.2980   31.8670   19.4320 C   0  0  0  0  0  0  0  0  0  0  0  0
    9.7950   31.7540   19.3270 C   0  0  0  0  0  0  0  0  0  0  0  0
   10.6820   31.7150   20.3340 C   0  0  0  0  0  0  0  0  0  0  0  0
   10.2950   31.7850   21.7830 C   0  0  0  0  0  0  0  0  0  0  0  0
   11.5010   31.7930   22.6760 C   0  0  0  0  0  0  0  0  0  0  0  0
   11.4820   32.2140   23.9490 C   0  0  0  0  0  0  0  0  0  0  0  0
   10.2510   32.7290   24.6400 C   0  0  0  0  0  0  0  0  0  0  0  0
   10.5040   33.1370   26.0950 C   0  0  0  0  0  0  0  0  0  0  0  0
   11.9920   33.2660   26.4390 C   0  0  0  0  0  0  0  0  0  0  0  0
   12.3870   34.6730   26.9030 C   0  0  0  0  0  0  0  0  0  0  0  0
   11.7820   35.0580   28.2550 C   0  0  0  0  0  0  0  0  0  0  0  0
   11.8610   33.8910   29.2480 C   0  0  0  0  0  0  0  0  0  0  0  0
   12.6920   34.2320   30.4840 C   0  0  0  0  0  0  0  0  0  0  0  0
   14.1800   34.1360   30.2430 C   0  0  0  0  0  0  0  0  0  0  0  0
   14.9800   35.0560   30.3070 O   0  0  0  0  0  0  0  0  0  0  0  0
   14.5260   32.8530   29.9660 O   0  0  0  0  0  0  0  0  0  0  0  0
    5.4325   30.1866   18.2599 H   0  0  0  0  0  0  0  0  0  0  0  0
    5.4309   31.1600   16.7502 H   0  0  0  0  0  0  0  0  0  0  0  0
    4.7410   29.5015   16.7502 H   0  0  0  0  0  0  0  0  0  0  0  0
    6.8234   28.4812   16.7924 H   0  0  0  0  0  0  0  0  0  0  0  0
    7.1572   29.9854   15.8106 H   0  0  0  0  0  0  0  0  0  0  0  0
    8.5884   29.0933   18.0277 H   0  0  0  0  0  0  0  0  0  0  0  0
    8.6180   30.7474   17.2558 H   0  0  0  0  0  0  0  0  0  0  0  0
    6.4311   30.9119   18.9162 H   0  0  0  0  0  0  0  0  0  0  0  0
    7.5758   29.8873   19.8705 H   0  0  0  0  0  0  0  0  0  0  0  0
    7.9788   32.6854   18.7700 H   0  0  0  0  0  0  0  0  0  0  0  0
    8.0960   32.0330   20.5005 H   0  0  0  0  0  0  0  0  0  0  0  0
   10.2095   31.6969   18.3097 H   0  0  0  0  0  0  0  0  0  0  0  0
   11.7496   31.6270   20.0841 H   0  0  0  0  0  0  0  0  0  0  0  0
    9.7175   32.7054   21.9544 H   0  0  0  0  0  0  0  0  0  0  0  0
    9.6947   30.8949   22.0227 H   0  0  0  0  0  0  0  0  0  0  0  0
   12.4548   31.4331   22.2628 H   0  0  0  0  0  0  0  0  0  0  0  0
   12.4215   32.1804   24.5202 H   0  0  0  0  0  0  0  0  0  0  0  0
    9.8820   33.6069   24.0894 H   0  0  0  0  0  0  0  0  0  0  0  0
    9.5156   31.9111   24.6521 H   0  0  0  0  0  0  0  0  0  0  0  0
   10.0188   34.1077   26.2747 H   0  0  0  0  0  0  0  0  0  0  0  0
   10.0901   32.3420   26.7327 H   0  0  0  0  0  0  0  0  0  0  0  0
   12.2274   32.5540   27.2437 H   0  0  0  0  0  0  0  0  0  0  0  0
   12.5585   33.0547   25.5201 H   0  0  0  0  0  0  0  0  0  0  0  0
   13.4830   34.7183   26.9856 H   0  0  0  0  0  0  0  0  0  0  0  0
   11.9971   35.3825   26.1583 H   0  0  0  0  0  0  0  0  0  0  0  0
   12.3348   35.9163   28.6646 H   0  0  0  0  0  0  0  0  0  0  0  0
   10.7236   35.3165   28.1032 H   0  0  0  0  0  0  0  0  0  0  0  0
   10.8415   33.6307   29.5688 H   0  0  0  0  0  0  0  0  0  0  0  0
   12.3506   33.0489   28.7370 H   0  0  0  0  0  0  0  0  0  0  0  0
   12.4532   35.2602   30.7936 H   0  0  0  0  0  0  0  0  0  0  0  0
   12.4380   33.4977   31.2626 H   0  0  0  0  0  0  0  0  0  0  0  0
  1  2  1  0
  2  3  1  0
  3  4  1  0
  4  5  1  0
  5  6  1  0
  6  7  2  0
  7  8  1  0
  8  9  1  0
  9 10  2  0
 10 11  1  0
 11 12  1  0
 12 13  1  0
 13 14  1  0
 14 15  1  0
 15 16  1  0
 16 17  1  0
 17 18  1  0
 18 19  2  0
 18 20  1  0
  1 21  1  0
  1 22  1  0
  1 23  1  0
  2 24  1  0
  2 25  1  0
  3 26  1  0
  3 27  1  0
  4 28  1  0
  4 29  1  0
  5 30  1  0
  5 31  1  0
  6 32  1  0
  7 33  1  0
  8 34  1  0
  8 35  1  0
  9 36  1  0
 10 37  1  0
 11 38  1  0
 11 39  1  0
 12 40  1  0
 12 41  1  0
 13 42  1  0
 13 43  1  0
 14 44  1  0
 14 45  1  0
 15 46  1  0
 15 47  1  0
 16 48  1  0
 16 49  1  0
 17 50  1  0
 17 51  1  0
M  CHG  1  20  -1
M  END
>  <meeko>  (16) 
{"is_sidechain": [false], "free_energy": -5.644, "intermolecular_energy": -11.941, "internal_energy": -0.921}

$$$$
linoleate_Clobe_run01
     RDKit          3D

 51 50  0  0  0  0  0  0  0  0999 V2000
    7.8430   29.1970   17.5410 C   0  0  0  0  0  0  0  0  0  0  0  0
    7.0940   30.2800   16.7800 C   0  0  0  0  0  0  0  0  0  0  0  0
    6.8280   31.5380   17.6100 C   0  0  0  0  0  0  0  0  0  0  0  0
    7.5370   32.7830   17.0700 C   0  0  0  0  0  0  0  0  0  0  0  0
    8.8550   32.4120   16.3790 C   0  0  0  0  0  0  0  0  0  0  0  0
   10.1070   33.0470   16.9220 C   0  0  0  0  0  0  0  0  0  0  0  0
   10.8280   32.6490   17.9820 C   0  0  0  0  0  0  0  0  0  0  0  0
   10.4750   31.4580   18.8260 C   0  0  0  0  0  0  0  0  0  0  0  0
    9.6370   31.8480   20.0070 C   0  0  0  0  0  0  0  0  0  0  0  0
   10.0350   31.7110   21.2810 C   0  0  0  0  0  0  0  0  0  0  0  0
   11.3700   31.1510   21.6820 C   0  0  0  0  0  0  0  0  0  0  0  0
   11.9900   31.8750   22.8830 C   0  0  0  0  0  0  0  0  0  0  0  0
   10.9710   32.2220   23.9730 C   0  0  0  0  0  0  0  0  0  0  0  0
   11.5980   32.9100   25.1910 C   0  0  0  0  0  0  0  0  0  0  0  0
   10.5710   33.3280   26.2470 C   0  0  0  0  0  0  0  0  0  0  0  0
   11.0120   34.6030   26.9740 C   0  0  0  0  0  0  0  0  0  0  0  0
   12.5200   34.8340   26.8840 C   0  0  0  0  0  0  0  0  0  0  0  0
   13.0850   35.5480   28.0880 C   0  0  0  0  0  0  0  0  0  0  0  0
   12.9330   35.2210   29.2550 O   0  0  0  0  0  0  0  0  0  0  0  0
   13.8270   36.6140   27.6940 O   0  0  0  0  0  0  0  0  0  0  0  0
    7.7284   29.3627   18.6224 H   0  0  0  0  0  0  0  0  0  0  0  0
    7.4325   28.2116   17.2755 H   0  0  0  0  0  0  0  0  0  0  0  0
    8.9099   29.2334   17.2755 H   0  0  0  0  0  0  0  0  0  0  0  0
    7.6907   30.5632   15.9003 H   0  0  0  0  0  0  0  0  0  0  0  0
    6.1147   29.8622   16.5036 H   0  0  0  0  0  0  0  0  0  0  0  0
    5.7447   31.7289   17.6168 H   0  0  0  0  0  0  0  0  0  0  0  0
    7.2231   31.3510   18.6194 H   0  0  0  0  0  0  0  0  0  0  0  0
    6.8797   33.2844   16.3444 H   0  0  0  0  0  0  0  0  0  0  0  0
    7.7614   33.4511   17.9146 H   0  0  0  0  0  0  0  0  0  0  0  0
    8.9751   31.3212   16.4547 H   0  0  0  0  0  0  0  0  0  0  0  0
    8.7598   32.7946   15.3521 H   0  0  0  0  0  0  0  0  0  0  0  0
   10.4724   33.9378   16.3901 H   0  0  0  0  0  0  0  0  0  0  0  0
   11.7260   33.2265   18.2468 H   0  0  0  0  0  0  0  0  0  0  0  0
    9.9135   30.7388   18.2116 H   0  0  0  0  0  0  0  0  0  0  0  0
   11.4085   31.0112   19.1987 H   0  0  0  0  0  0  0  0  0  0  0  0
    8.6391   32.2705   19.8180 H   0  0  0  0  0  0  0  0  0  0  0  0
    9.3445   32.0267   22.0770 H   0  0  0  0  0  0  0  0  0  0  0  0
   11.2408   30.0899   21.9415 H   0  0  0  0  0  0  0  0  0  0  0  0
   12.0519   31.2866   20.8296 H   0  0  0  0  0  0  0  0  0  0  0  0
   12.7627   31.2261   23.3211 H   0  0  0  0  0  0  0  0  0  0  0  0
   12.4066   32.8232   22.5125 H   0  0  0  0  0  0  0  0  0  0  0  0
   10.2146   32.8948   23.5427 H   0  0  0  0  0  0  0  0  0  0  0  0
   10.5324   31.2758   24.3227 H   0  0  0  0  0  0  0  0  0  0  0  0
   12.3126   32.2144   25.6553 H   0  0  0  0  0  0  0  0  0  0  0  0
   12.0863   33.8275   24.8309 H   0  0  0  0  0  0  0  0  0  0  0  0
    9.6045   33.5115   25.7548 H   0  0  0  0  0  0  0  0  0  0  0  0
   10.4819   32.5183   26.9863 H   0  0  0  0  0  0  0  0  0  0  0  0
   10.4955   35.4632   26.5231 H   0  0  0  0  0  0  0  0  0  0  0  0
   10.7534   34.4890   28.0371 H   0  0  0  0  0  0  0  0  0  0  0  0
   13.0183   33.8578   26.7907 H   0  0  0  0  0  0  0  0  0  0  0  0
   12.7008   35.4754   26.0089 H   0  0  0  0  0  0  0  0  0  0  0  0
  1  2  1  0
  2  3  1  0
  3  4  1  0
  4  5  1  0
  5  6  1  0
  6  7  2  0
  7  8  1  0
  8  9  1  0
  9 10  2  0
 10 11  1  0
 11 12  1  0
 12 13  1  0
 13 14  1  0
 14 15  1  0
 15 16  1  0
 16 17  1  0
 17 18  1  0
 18 19  2  0
 18 20  1  0
  1 21  1  0
  1 22  1  0
  1 23  1  0
  2 24  1  0
  2 25  1  0
  3 26  1  0
  3 27  1  0
  4 28  1  0
  4 29  1  0
  5 30  1  0
  5 31  1  0
  6 32  1  0
  7 33  1  0
  8 34  1  0
  8 35  1  0
  9 36  1  0
 10 37  1  0
 11 38  1  0
 11 39  1  0
 12 40  1  0
 12 41  1  0
 13 42  1  0
 13 43  1  0
 14 44  1  0
 14 45  1  0
 15 46  1  0
 15 47  1  0
 16 48  1  0
 16 49  1  0
 17 50  1  0
 17 51  1  0
M  CHG  1  20  -1
M  END
>  <meeko>  (17) 
{"is_sidechain": [false], "free_energy": -5.629, "intermolecular_energy": -11.458, "internal_energy": -1.376}

$$$$
linoleate_Clobe_run01
     RDKit          3D

 51 50  0  0  0  0  0  0  0  0999 V2000
    9.7970   35.9120   29.5390 C   0  0  0  0  0  0  0  0  0  0  0  0
   10.2680   35.2420   30.8200 C   0  0  0  0  0  0  0  0  0  0  0  0
   11.5300   34.3960   30.6390 C   0  0  0  0  0  0  0  0  0  0  0  0
   12.8010   35.2320   30.4630 C   0  0  0  0  0  0  0  0  0  0  0  0
   13.5360   34.8540   29.1710 C   0  0  0  0  0  0  0  0  0  0  0  0
   13.0540   35.5030   27.9020 C   0  0  0  0  0  0  0  0  0  0  0  0
   12.3920   34.9210   26.8900 C   0  0  0  0  0  0  0  0  0  0  0  0
   12.0180   33.4670   26.8710 C   0  0  0  0  0  0  0  0  0  0  0  0
   10.7380   33.2370   26.1240 C   0  0  0  0  0  0  0  0  0  0  0  0
   10.6770   32.6890   24.9010 C   0  0  0  0  0  0  0  0  0  0  0  0
   11.8830   32.2370   24.1290 C   0  0  0  0  0  0  0  0  0  0  0  0
   11.5720   31.9080   22.6640 C   0  0  0  0  0  0  0  0  0  0  0  0
   10.1310   32.2420   22.2610 C   0  0  0  0  0  0  0  0  0  0  0  0
    9.7960   31.8390   20.8210 C   0  0  0  0  0  0  0  0  0  0  0  0
   11.0340   31.6470   19.9410 C   0  0  0  0  0  0  0  0  0  0  0  0
   10.6560   31.6170   18.4550 C   0  0  0  0  0  0  0  0  0  0  0  0
   10.6730   33.0070   17.8210 C   0  0  0  0  0  0  0  0  0  0  0  0
    9.4240   33.3140   17.0300 C   0  0  0  0  0  0  0  0  0  0  0  0
    9.3070   33.2490   15.8160 O   0  0  0  0  0  0  0  0  0  0  0  0
    8.4120   33.6520   17.8680 O   0  0  0  0  0  0  0  0  0  0  0  0
    9.1809   36.7884   29.7887 H   0  0  0  0  0  0  0  0  0  0  0  0
   10.6694   36.2327   28.9508 H   0  0  0  0  0  0  0  0  0  0  0  0
    9.1999   35.1996   28.9508 H   0  0  0  0  0  0  0  0  0  0  0  0
   10.4770   36.0238   31.5651 H   0  0  0  0  0  0  0  0  0  0  0  0
    9.4662   34.5614   31.1424 H   0  0  0  0  0  0  0  0  0  0  0  0
   11.6524   33.7576   31.5264 H   0  0  0  0  0  0  0  0  0  0  0  0
   11.3979   33.8073   29.7192 H   0  0  0  0  0  0  0  0  0  0  0  0
   12.5279   36.2968   30.4226 H   0  0  0  0  0  0  0  0  0  0  0  0
   13.4687   35.0362   31.3149 H   0  0  0  0  0  0  0  0  0  0  0  0
   14.5951   35.1215   29.3001 H   0  0  0  0  0  0  0  0  0  0  0  0
   13.3454   33.7792   29.0352 H   0  0  0  0  0  0  0  0  0  0  0  0
   13.2685   36.5762   27.7912 H   0  0  0  0  0  0  0  0  0  0  0  0
   12.1081   35.5427   26.0281 H   0  0  0  0  0  0  0  0  0  0  0  0
   12.8231   32.8974   26.3838 H   0  0  0  0  0  0  0  0  0  0  0  0
   11.8752   33.1344   27.9097 H   0  0  0  0  0  0  0  0  0  0  0  0
    9.7953   33.5346   26.6065 H   0  0  0  0  0  0  0  0  0  0  0  0
    9.6874   32.5637   24.4374 H   0  0  0  0  0  0  0  0  0  0  0  0
   12.6360   33.0385   24.1554 H   0  0  0  0  0  0  0  0  0  0  0  0
   12.2474   31.3131   24.6020 H   0  0  0  0  0  0  0  0  0  0  0  0
   12.2562   32.4842   22.0238 H   0  0  0  0  0  0  0  0  0  0  0  0
   11.7026   30.8230   22.5386 H   0  0  0  0  0  0  0  0  0  0  0  0
    9.4467   31.7123   22.9401 H   0  0  0  0  0  0  0  0  0  0  0  0
   10.0184   33.3341   22.3285 H   0  0  0  0  0  0  0  0  0  0  0  0
    9.2349   30.8932   20.8449 H   0  0  0  0  0  0  0  0  0  0  0  0
    9.2089   32.6591   20.3820 H   0  0  0  0  0  0  0  0  0  0  0  0
   11.7325   32.4783   20.1173 H   0  0  0  0  0  0  0  0  0  0  0  0
   11.5024   30.6865   20.2018 H   0  0  0  0  0  0  0  0  0  0  0  0
   11.3733   30.9765   17.9210 H   0  0  0  0  0  0  0  0  0  0  0  0
    9.6308   31.2259   18.3778 H   0  0  0  0  0  0  0  0  0  0  0  0
   10.7731   33.7552   18.6211 H   0  0  0  0  0  0  0  0  0  0  0  0
   11.5201   33.0367   17.1199 H   0  0  0  0  0  0  0  0  0  0  0  0
  1  2  1  0
  2  3  1  0
  3  4  1  0
  4  5  1  0
  5  6  1  0
  6  7  2  0
  7  8  1  0
  8  9  1  0
  9 10  2  0
 10 11  1  0
 11 12  1  0
 12 13  1  0
 13 14  1  0
 14 15  1  0
 15 16  1  0
 16 17  1  0
 17 18  1  0
 18 19  2  0
 18 20  1  0
  1 21  1  0
  1 22  1  0
  1 23  1  0
  2 24  1  0
  2 25  1  0
  3 26  1  0
  3 27  1  0
  4 28  1  0
  4 29  1  0
  5 30  1  0
  5 31  1  0
  6 32  1  0
  7 33  1  0
  8 34  1  0
  8 35  1  0
  9 36  1  0
 10 37  1  0
 11 38  1  0
 11 39  1  0
 12 40  1  0
 12 41  1  0
 13 42  1  0
 13 43  1  0
 14 44  1  0
 14 45  1  0
 15 46  1  0
 15 47  1  0
 16 48  1  0
 16 49  1  0
 17 50  1  0
 17 51  1  0
M  CHG  1  20  -1
M  END
>  <meeko>  (18) 
{"is_sidechain": [false], "free_energy": -5.618, "intermolecular_energy": -11.465, "internal_energy": -1.35}

$$$$
linoleate_Clobe_run01
     RDKit          3D

 51 50  0  0  0  0  0  0  0  0999 V2000
   14.5040   32.9510   30.0040 C   0  0  0  0  0  0  0  0  0  0  0  0
   13.8420   34.2620   30.3980 C   0  0  0  0  0  0  0  0  0  0  0  0
   14.5080   35.4930   29.7790 C   0  0  0  0  0  0  0  0  0  0  0  0
   13.5770   36.2890   28.8600 C   0  0  0  0  0  0  0  0  0  0  0  0
   13.0670   35.4200   27.7040 C   0  0  0  0  0  0  0  0  0  0  0  0
   11.6100   35.5510   27.3490 C   0  0  0  0  0  0  0  0  0  0  0  0
   10.8850   34.7330   26.5700 C   0  0  0  0  0  0  0  0  0  0  0  0
   11.4460   33.5100   25.9020 C   0  0  0  0  0  0  0  0  0  0  0  0
   10.3960   32.7800   25.1190 C   0  0  0  0  0  0  0  0  0  0  0  0
   10.6220   32.1990   23.9300 C   0  0  0  0  0  0  0  0  0  0  0  0
   11.9560   32.2080   23.2380 C   0  0  0  0  0  0  0  0  0  0  0  0
   11.9420   31.4660   21.8970 C   0  0  0  0  0  0  0  0  0  0  0  0
   10.5720   31.4780   21.2110 C   0  0  0  0  0  0  0  0  0  0  0  0
   10.6470   31.7790   19.7110 C   0  0  0  0  0  0  0  0  0  0  0  0
    9.3240   31.5420   18.9780 C   0  0  0  0  0  0  0  0  0  0  0  0
    8.1410   31.5540   19.9530 C   0  0  0  0  0  0  0  0  0  0  0  0
    6.8080   31.8060   19.2510 C   0  0  0  0  0  0  0  0  0  0  0  0
    6.0580   30.5360   18.9280 C   0  0  0  0  0  0  0  0  0  0  0  0
    6.3560   29.7230   18.0670 O   0  0  0  0  0  0  0  0  0  0  0  0
    4.9970   30.3960   19.7630 O   0  0  0  0  0  0  0  0  0  0  0  0
   14.7848   32.3950   30.9107 H   0  0  0  0  0  0  0  0  0  0  0  0
   13.8013   32.3500   29.4082 H   0  0  0  0  0  0  0  0  0  0  0  0
   15.4048   33.1596   29.4082 H   0  0  0  0  0  0  0  0  0  0  0  0
   12.7918   34.2334   30.0719 H   0  0  0  0  0  0  0  0  0  0  0  0
   13.9377   34.3572   31.4897 H   0  0  0  0  0  0  0  0  0  0  0  0
   14.8444   36.1535   30.5918 H   0  0  0  0  0  0  0  0  0  0  0  0
   15.3452   35.1343   29.1622 H   0  0  0  0  0  0  0  0  0  0  0  0
   12.7178   36.6498   29.4444 H   0  0  0  0  0  0  0  0  0  0  0  0
   14.1408   37.1346   28.4391 H   0  0  0  0  0  0  0  0  0  0  0  0
   13.6523   35.6791   26.8094 H   0  0  0  0  0  0  0  0  0  0  0  0
   13.1875   34.3823   28.0486 H   0  0  0  0  0  0  0  0  0  0  0  0
   11.0795   36.4147   27.7763 H   0  0  0  0  0  0  0  0  0  0  0  0
    9.8227   34.9710   26.4122 H   0  0  0  0  0  0  0  0  0  0  0  0
   12.2535   33.8142   25.2198 H   0  0  0  0  0  0  0  0  0  0  0  0
   11.8259   32.8345   26.6826 H   0  0  0  0  0  0  0  0  0  0  0  0
    9.3829   32.7169   25.5429 H   0  0  0  0  0  0  0  0  0  0  0  0
    9.7836   31.6876   23.4344 H   0  0  0  0  0  0  0  0  0  0  0  0
   12.2497   33.2525   23.0572 H   0  0  0  0  0  0  0  0  0  0  0  0
   12.6695   31.6875   23.8937 H   0  0  0  0  0  0  0  0  0  0  0  0
   12.6722   31.9429   21.2266 H   0  0  0  0  0  0  0  0  0  0  0  0
   12.1932   30.4152   22.1039 H   0  0  0  0  0  0  0  0  0  0  0  0
   10.1055   30.4910   21.3460 H   0  0  0  0  0  0  0  0  0  0  0  0
    9.9827   32.2825   21.6752 H   0  0  0  0  0  0  0  0  0  0  0  0
   10.9344   32.8327   19.5805 H   0  0  0  0  0  0  0  0  0  0  0  0
   11.3871   31.0903   19.2775 H   0  0  0  0  0  0  0  0  0  0  0  0
    9.1808   32.3358   18.2301 H   0  0  0  0  0  0  0  0  0  0  0  0
    9.3660   30.5556   18.4929 H   0  0  0  0  0  0  0  0  0  0  0  0
    8.0932   30.5800   20.4619 H   0  0  0  0  0  0  0  0  0  0  0  0
    8.3038   32.3752   20.6666 H   0  0  0  0  0  0  0  0  0  0  0  0
    6.1792   32.4266   19.9064 H   0  0  0  0  0  0  0  0  0  0  0  0
    7.0298   32.3070   18.2971 H   0  0  0  0  0  0  0  0  0  0  0  0
  1  2  1  0
  2  3  1  0
  3  4  1  0
  4  5  1  0
  5  6  1  0
  6  7  2  0
  7  8  1  0
  8  9  1  0
  9 10  2  0
 10 11  1  0
 11 12  1  0
 12 13  1  0
 13 14  1  0
 14 15  1  0
 15 16  1  0
 16 17  1  0
 17 18  1  0
 18 19  2  0
 18 20  1  0
  1 21  1  0
  1 22  1  0
  1 23  1  0
  2 24  1  0
  2 25  1  0
  3 26  1  0
  3 27  1  0
  4 28  1  0
  4 29  1  0
  5 30  1  0
  5 31  1  0
  6 32  1  0
  7 33  1  0
  8 34  1  0
  8 35  1  0
  9 36  1  0
 10 37  1  0
 11 38  1  0
 11 39  1  0
 12 40  1  0
 12 41  1  0
 13 42  1  0
 13 43  1  0
 14 44  1  0
 14 45  1  0
 15 46  1  0
 15 47  1  0
 16 48  1  0
 16 49  1  0
 17 50  1  0
 17 51  1  0
M  CHG  1  20  -1
M  END
>  <meeko>  (19) 
{"is_sidechain": [false], "free_energy": -5.609, "intermolecular_energy": -11.916, "internal_energy": -0.883}

$$$$
linoleate_Clobe_run01
     RDKit          3D

 51 50  0  0  0  0  0  0  0  0999 V2000
   13.5240   36.5960   28.1970 C   0  0  0  0  0  0  0  0  0  0  0  0
   12.3670   36.0270   29.0030 C   0  0  0  0  0  0  0  0  0  0  0  0
   11.7020   34.8150   28.3460 C   0  0  0  0  0  0  0  0  0  0  0  0
   10.7000   35.1930   27.2510 C   0  0  0  0  0  0  0  0  0  0  0  0
   10.6980   34.1550   26.1210 C   0  0  0  0  0  0  0  0  0  0  0  0
   11.9840   33.4110   25.8820 C   0  0  0  0  0  0  0  0  0  0  0  0
   12.2600   32.5630   24.8790 C   0  0  0  0  0  0  0  0  0  0  0  0
   11.2790   32.2110   23.7970 C   0  0  0  0  0  0  0  0  0  0  0  0
   11.9770   31.7680   22.5450 C   0  0  0  0  0  0  0  0  0  0  0  0
   11.3450   31.5180   21.3880 C   0  0  0  0  0  0  0  0  0  0  0  0
    9.8600   31.6530   21.2040 C   0  0  0  0  0  0  0  0  0  0  0  0
    9.4150   31.4660   19.7490 C   0  0  0  0  0  0  0  0  0  0  0  0
    8.2180   32.3420   19.3630 C   0  0  0  0  0  0  0  0  0  0  0  0
    6.8920   31.8490   19.9520 C   0  0  0  0  0  0  0  0  0  0  0  0
    5.7920   31.6690   18.9030 C   0  0  0  0  0  0  0  0  0  0  0  0
    5.6380   30.1950   18.5100 C   0  0  0  0  0  0  0  0  0  0  0  0
    6.0880   29.9240   17.0750 C   0  0  0  0  0  0  0  0  0  0  0  0
    7.5460   29.5480   16.9710 C   0  0  0  0  0  0  0  0  0  0  0  0
    8.1150   28.6840   17.6210 O   0  0  0  0  0  0  0  0  0  0  0  0
    8.1550   30.2950   16.0150 O   0  0  0  0  0  0  0  0  0  0  0  0
   14.2963   36.9758   28.8820 H   0  0  0  0  0  0  0  0  0  0  0  0
   13.9527   35.8060   27.5629 H   0  0  0  0  0  0  0  0  0  0  0  0
   13.1600   37.4179   27.5629 H   0  0  0  0  0  0  0  0  0  0  0  0
   12.7464   35.7234   29.9899 H   0  0  0  0  0  0  0  0  0  0  0  0
   11.6036   36.8158   29.0737 H   0  0  0  0  0  0  0  0  0  0  0  0
   12.4862   34.1859   27.8996 H   0  0  0  0  0  0  0  0  0  0  0  0
   11.1423   34.2853   29.1309 H   0  0  0  0  0  0  0  0  0  0  0  0
    9.6927   35.2485   27.6895 H   0  0  0  0  0  0  0  0  0  0  0  0
   10.9931   36.1663   26.8305 H   0  0  0  0  0  0  0  0  0  0  0  0
    9.9214   33.4114   26.3533 H   0  0  0  0  0  0  0  0  0  0  0  0
   10.5231   34.7313   25.2005 H   0  0  0  0  0  0  0  0  0  0  0  0
   12.7890   33.5815   26.6120 H   0  0  0  0  0  0  0  0  0  0  0  0
   13.2578   32.1010   24.8475 H   0  0  0  0  0  0  0  0  0  0  0  0
   10.6316   31.3960   24.1528 H   0  0  0  0  0  0  0  0  0  0  0  0
   10.6866   33.1079   23.5630 H   0  0  0  0  0  0  0  0  0  0  0  0
   13.0692   31.6409   22.5774 H   0  0  0  0  0  0  0  0  0  0  0  0
   11.9479   31.1962   20.5260 H   0  0  0  0  0  0  0  0  0  0  0  0
    9.3600   30.8938   21.8234 H   0  0  0  0  0  0  0  0  0  0  0  0
    9.5840   32.6751   21.5027 H   0  0  0  0  0  0  0  0  0  0  0  0
   10.2592   31.7188   19.0906 H   0  0  0  0  0  0  0  0  0  0  0  0
    9.1008   30.4178   19.6369 H   0  0  0  0  0  0  0  0  0  0  0  0
    8.4023   33.3643   19.7248 H   0  0  0  0  0  0  0  0  0  0  0  0
    8.1236   32.3010   18.2678 H   0  0  0  0  0  0  0  0  0  0  0  0
    7.0671   30.8807   20.4436 H   0  0  0  0  0  0  0  0  0  0  0  0
    6.5447   32.6167   20.6591 H   0  0  0  0  0  0  0  0  0  0  0  0
    4.8392   32.0319   19.3160 H   0  0  0  0  0  0  0  0  0  0  0  0
    6.0685   32.2421   18.0058 H   0  0  0  0  0  0  0  0  0  0  0  0
    6.2455   29.5823   19.1923 H   0  0  0  0  0  0  0  0  0  0  0  0
    4.5705   29.9392   18.5804 H   0  0  0  0  0  0  0  0  0  0  0  0
    5.4842   29.0990   16.6690 H   0  0  0  0  0  0  0  0  0  0  0  0
    5.9490   30.8557   16.5069 H   0  0  0  0  0  0  0  0  0  0  0  0
  1  2  1  0
  2  3  1  0
  3  4  1  0
  4  5  1  0
  5  6  1  0
  6  7  2  0
  7  8  1  0
  8  9  1  0
  9 10  2  0
 10 11  1  0
 11 12  1  0
 12 13  1  0
 13 14  1  0
 14 15  1  0
 15 16  1  0
 16 17  1  0
 17 18  1  0
 18 19  2  0
 18 20  1  0
  1 21  1  0
  1 22  1  0
  1 23  1  0
  2 24  1  0
  2 25  1  0
  3 26  1  0
  3 27  1  0
  4 28  1  0
  4 29  1  0
  5 30  1  0
  5 31  1  0
  6 32  1  0
  7 33  1  0
  8 34  1  0
  8 35  1  0
  9 36  1  0
 10 37  1  0
 11 38  1  0
 11 39  1  0
 12 40  1  0
 12 41  1  0
 13 42  1  0
 13 43  1  0
 14 44  1  0
 14 45  1  0
 15 46  1  0
 15 47  1  0
 16 48  1  0
 16 49  1  0
 17 50  1  0
 17 51  1  0
M  CHG  1  20  -1
M  END
>  <meeko>  (20) 
{"is_sidechain": [false], "free_energy": -5.599, "intermolecular_energy": -11.738, "internal_energy": -1.041}

$$$$
