linoleate_Clobe_run03
     RDKit          3D

 51 50  0  0  0  0  0  0  0  0999 V2000
    4.6370   34.6980   16.0380 C   0  0  0  0  0  0  0  0  0  0  0  0
    5.4710   33.7040   16.8320 C   0  0  0  0  0  0  0  0  0  0  0  0
    4.6680   32.5080   17.3490 C   0  0  0  0  0  0  0  0  0  0  0  0
    5.0480   32.0920   18.7730 C   0  0  0  0  0  0  0  0  0  0  0  0
    6.1340   31.0090   18.7600 C   0  0  0  0  0  0  0  0  0  0  0  0
    6.0580   29.9850   17.6590 C   0  0  0  0  0  0  0  0  0  0  0  0
    7.0320   29.6330   16.8060 C   0  0  0  0  0  0  0  0  0  0  0  0
    8.4070   30.2380   16.8220 C   0  0  0  0  0  0  0  0  0  0  0  0
    8.5590   31.2890   15.7620 C   0  0  0  0  0  0  0  0  0  0  0  0
    8.9490   32.5480   16.0120 C   0  0  0  0  0  0  0  0  0  0  0  0
    9.2850   33.0600   17.3830 C   0  0  0  0  0  0  0  0  0  0  0  0
   10.7210   32.7390   17.8110 C   0  0  0  0  0  0  0  0  0  0  0  0
   10.8010   31.9190   19.1020 C   0  0  0  0  0  0  0  0  0  0  0  0
    9.4470   31.7590   19.8030 C   0  0  0  0  0  0  0  0  0  0  0  0
    9.5700   31.4910   21.3050 C   0  0  0  0  0  0  0  0  0  0  0  0
   11.0000   31.7440   21.7970 C   0  0  0  0  0  0  0  0  0  0  0  0
   11.0480   32.1360   23.2740 C   0  0  0  0  0  0  0  0  0  0  0  0
   12.4460   32.1340   23.8430 C   0  0  0  0  0  0  0  0  0  0  0  0
   12.7560   32.4010   24.9940 O   0  0  0  0  0  0  0  0  0  0  0  0
   13.3380   31.7570   22.8910 O   0  0  0  0  0  0  0  0  0  0  0  0
    4.0880   35.3523   16.7312 H   0  0  0  0  0  0  0  0  0  0  0  0
    5.2980   35.3075   15.4043 H   0  0  0  0  0  0  0  0  0  0  0  0
    3.9219   34.1530   15.4043 H   0  0  0  0  0  0  0  0  0  0  0  0
    6.2760   33.3285   16.1832 H   0  0  0  0  0  0  0  0  0  0  0  0
    5.8589   34.2377   17.7121 H   0  0  0  0  0  0  0  0  0  0  0  0
    3.6004   32.7726   17.3359 H   0  0  0  0  0  0  0  0  0  0  0  0
    4.8925   31.6561   16.6903 H   0  0  0  0  0  0  0  0  0  0  0  0
    5.4241   32.9716   19.3161 H   0  0  0  0  0  0  0  0  0  0  0  0
    4.1543   31.6850   19.2686 H   0  0  0  0  0  0  0  0  0  0  0  0
    7.1074   31.5147   18.6776 H   0  0  0  0  0  0  0  0  0  0  0  0
    5.9865   30.4422   19.6911 H   0  0  0  0  0  0  0  0  0  0  0  0
    5.0950   29.4668   17.5405 H   0  0  0  0  0  0  0  0  0  0  0  0
    6.8120   28.8601   16.0548 H   0  0  0  0  0  0  0  0  0  0  0  0
    8.5846   30.6953   17.8065 H   0  0  0  0  0  0  0  0  0  0  0  0
    9.1371   29.4397   16.6229 H   0  0  0  0  0  0  0  0  0  0  0  0
    8.3381   31.0114   14.7208 H   0  0  0  0  0  0  0  0  0  0  0  0
    9.0271   33.2449   15.1645 H   0  0  0  0  0  0  0  0  0  0  0  0
    9.1536   34.1521   17.3905 H   0  0  0  0  0  0  0  0  0  0  0  0
    8.6117   32.5585   18.0938 H   0  0  0  0  0  0  0  0  0  0  0  0
   11.2061   32.1689   17.0050 H   0  0  0  0  0  0  0  0  0  0  0  0
   11.2250   33.6977   18.0030 H   0  0  0  0  0  0  0  0  0  0  0  0
   11.1878   30.9188   18.8570 H   0  0  0  0  0  0  0  0  0  0  0  0
   11.4635   32.4617   19.7924 H   0  0  0  0  0  0  0  0  0  0  0  0
    8.8684   32.6835   19.6597 H   0  0  0  0  0  0  0  0  0  0  0  0
    8.9503   30.8852   19.3560 H   0  0  0  0  0  0  0  0  0  0  0  0
    8.8812   32.1565   21.8460 H   0  0  0  0  0  0  0  0  0  0  0  0
    9.3178   30.4369   21.4930 H   0  0  0  0  0  0  0  0  0  0  0  0
   11.5896   30.8261   21.6559 H   0  0  0  0  0  0  0  0  0  0  0  0
   11.4116   32.5814   21.2145 H   0  0  0  0  0  0  0  0  0  0  0  0
   10.6279   33.1469   23.3815 H   0  0  0  0  0  0  0  0  0  0  0  0
   10.4666   31.3864   23.8309 H   0  0  0  0  0  0  0  0  0  0  0  0
  1  2  1  0
  2  3  1  0
  3  4  1  0
  4  5  1  0
  5  6  1  0
  6  7  2  0
  7  8  1  0
  8  9  1  0
  9 10  2  0
 10 11  1  0
 11 12  1  0
 12 13  1  0
 13 14  1  0
 14 15  1  0
 15 16  1  0
 16 17  1  0
 17 18  1  0
 18 19  2  0
 18 20  1  0
  1 21  1  0
  1 22  1  0
  1 23  1  0
  2 24  1  0
  2 25  1  0
  3 26  1  0
  3 27  1  0
  4 28  1  0
  4 29  1  0
  5 30  1  0
  5 31  1  0
  6 32  1  0
  7 33  1  0
  8 34  1  0
  8 35  1  0
  9 36  1  0
 10 37  1  0
 11 38  1  0
 11 39  1  0
 12 40  1  0
 12 41  1  0
 13 42  1  0
 13 43  1  0
 14 44  1  0
 14 45  1  0
 15 46  1  0
 15 47  1  0
 16 48  1  0
 16 49  1  0
 17 50  1  0
 17 51  1  0
M  CHG  1  20  -1
M  END
>  <meeko>  (1) 
{"is_sidechain": [false], "free_energy": -6.946, "intermolecular_energy": -12.631, "internal_energy": -2.019}

$$$$
linoleate_Clobe_run03
     RDKit          3D

 51 50  0  0  0  0  0  0  0  0999 V2000
    6.8600   33.6340   16.9080 C   0  0  0  0  0  0  0  0  0  0  0  0
    8.2320   33.4650   17.5400 C   0  0  0  0  0  0  0  0  0  0  0  0
    9.1680   32.5600   16.7350 C   0  0  0  0  0  0  0  0  0  0  0  0
    9.8990   31.5250   17.5960 C   0  0  0  0  0  0  0  0  0  0  0  0
    9.0100   30.3040   17.8650 C   0  0  0  0  0  0  0  0  0  0  0  0
    8.0850   29.8800   16.7560 C   0  0  0  0  0  0  0  0  0  0  0  0
    6.7610   29.6720   16.8340 C   0  0  0  0  0  0  0  0  0  0  0  0
    5.9690   29.8370   18.1000 C   0  0  0  0  0  0  0  0  0  0  0  0
    5.1590   31.0990   18.0820 C   0  0  0  0  0  0  0  0  0  0  0  0
    5.0070   31.9030   19.1450 C   0  0  0  0  0  0  0  0  0  0  0  0
    5.6320   31.6380   20.4860 C   0  0  0  0  0  0  0  0  0  0  0  0
    7.1280   31.9670   20.5280 C   0  0  0  0  0  0  0  0  0  0  0  0
    7.4880   33.0210   21.5820 C   0  0  0  0  0  0  0  0  0  0  0  0
    8.9720   33.0140   21.9630 C   0  0  0  0  0  0  0  0  0  0  0  0
    9.7890   31.9650   21.2040 C   0  0  0  0  0  0  0  0  0  0  0  0
   10.9590   31.4550   22.0540 C   0  0  0  0  0  0  0  0  0  0  0  0
   10.9300   32.0070   23.4780 C   0  0  0  0  0  0  0  0  0  0  0  0
   12.3070   32.2350   24.0550 C   0  0  0  0  0  0  0  0  0  0  0  0
   12.5580   32.6670   25.1690 O   0  0  0  0  0  0  0  0  0  0  0  0
   13.2560   31.8600   23.1590 O   0  0  0  0  0  0  0  0  0  0  0  0
    6.1011   33.7275   17.6987 H   0  0  0  0  0  0  0  0  0  0  0  0
    6.8528   34.5398   16.2839 H   0  0  0  0  0  0  0  0  0  0  0  0
    6.6332   32.7570   16.2839 H   0  0  0  0  0  0  0  0  0  0  0  0
    8.6987   34.4571   17.6294 H   0  0  0  0  0  0  0  0  0  0  0  0
    8.0806   32.9854   18.5183 H   0  0  0  0  0  0  0  0  0  0  0  0
    8.5732   32.0273   15.9784 H   0  0  0  0  0  0  0  0  0  0  0  0
    9.9342   33.2055   16.2808 H   0  0  0  0  0  0  0  0  0  0  0  0
   10.8086   31.1985   17.0706 H   0  0  0  0  0  0  0  0  0  0  0  0
   10.1551   31.9900   18.5594 H   0  0  0  0  0  0  0  0  0  0  0  0
    9.6712   29.4542   18.0900 H   0  0  0  0  0  0  0  0  0  0  0  0
    8.3493   30.6057   18.6911 H   0  0  0  0  0  0  0  0  0  0  0  0
    8.5461   29.7227   15.7698 H   0  0  0  0  0  0  0  0  0  0  0  0
    6.2276   29.3644   15.9225 H   0  0  0  0  0  0  0  0  0  0  0  0
    5.2904   28.9785   18.2114 H   0  0  0  0  0  0  0  0  0  0  0  0
    6.6737   29.8916   18.9429 H   0  0  0  0  0  0  0  0  0  0  0  0
    4.6608   31.3817   17.1429 H   0  0  0  0  0  0  0  0  0  0  0  0
    4.3906   32.8066   19.0288 H   0  0  0  0  0  0  0  0  0  0  0  0
    5.1173   32.2522   21.2396 H   0  0  0  0  0  0  0  0  0  0  0  0
    5.5271   30.5621   20.6897 H   0  0  0  0  0  0  0  0  0  0  0  0
    7.6822   31.0440   20.7537 H   0  0  0  0  0  0  0  0  0  0  0  0
    7.3978   32.3829   19.5460 H   0  0  0  0  0  0  0  0  0  0  0  0
    7.2345   34.0144   21.1833 H   0  0  0  0  0  0  0  0  0  0  0  0
    6.9169   32.7814   22.4911 H   0  0  0  0  0  0  0  0  0  0  0  0
    9.3924   34.0072   21.7465 H   0  0  0  0  0  0  0  0  0  0  0  0
    9.0319   32.7616   23.0320 H   0  0  0  0  0  0  0  0  0  0  0  0
    9.1358   31.1181   20.9469 H   0  0  0  0  0  0  0  0  0  0  0  0
   10.1953   32.4303   20.2938 H   0  0  0  0  0  0  0  0  0  0  0  0
   10.9097   30.3571   22.0999 H   0  0  0  0  0  0  0  0  0  0  0  0
   11.8910   31.7979   21.5809 H   0  0  0  0  0  0  0  0  0  0  0  0
   10.3907   32.9657   23.4706 H   0  0  0  0  0  0  0  0  0  0  0  0
   10.4306   31.2574   24.1094 H   0  0  0  0  0  0  0  0  0  0  0  0
  1  2  1  0
  2  3  1  0
  3  4  1  0
  4  5  1  0
  5  6  1  0
  6  7  2  0
  7  8  1  0
  8  9  1  0
  9 10  2  0
 10 11  1  0
 11 12  1  0
 12 13  1  0
 13 14  1  0
 14 15  1  0
 15 16  1  0
 16 17  1  0
 17 18  1  0
 18 19  2  0
 18 20  1  0
  1 21  1  0
  1 22  1  0
  1 23  1  0
  2 24  1  0
  2 25  1  0
  3 26  1  0
  3 27  1  0
  4 28  1  0
  4 29  1  0
  5 30  1  0
  5 31  1  0
  6 32  1  0
  7 33  1  0
  8 34  1  0
  8 35  1  0
  9 36  1  0
 10 37  1  0
 11 38  1  0
 11 39  1  0
 12 40  1  0
 12 41  1  0
 13 42  1  0
 13 43  1  0
 14 44  1  0
 14 45  1  0
 15 46  1  0
 15 47  1  0
 16 48  1  0
 16 49  1  0
 17 50  1  0
 17 51  1  0
M  CHG  1  20  -1
M  END
>  <meeko>  (2) 
{"is_sidechain": [false], "free_energy": -6.352, "intermolecular_energy": -11.473, "internal_energy": -2.095}

$$$$
linoleate_Clobe_run03
     RDKit          3D

 51 50  0  0  0  0  0  0  0  0999 V2000
    9.2610   33.4070   17.0830 C   0  0  0  0  0  0  0  0  0  0  0  0
    9.5360   31.9160   16.9670 C   0  0  0  0  0  0  0  0  0  0  0  0
    8.4240   31.1430   16.2540 C   0  0  0  0  0  0  0  0  0  0  0  0
    8.2440   29.7160   16.7800 C   0  0  0  0  0  0  0  0  0  0  0  0
    7.0850   29.6380   17.7810 C   0  0  0  0  0  0  0  0  0  0  0  0
    5.7030   29.8900   17.2410 C   0  0  0  0  0  0  0  0  0  0  0  0
    4.9330   30.9710   17.4420 C   0  0  0  0  0  0  0  0  0  0  0  0
    5.3560   32.1450   18.2780 C   0  0  0  0  0  0  0  0  0  0  0  0
    5.2740   31.8350   19.7440 C   0  0  0  0  0  0  0  0  0  0  0  0
    6.3250   31.8860   20.5760 C   0  0  0  0  0  0  0  0  0  0  0  0
    7.7140   32.2610   20.1430 C   0  0  0  0  0  0  0  0  0  0  0  0
    8.7720   31.2340   20.5620 C   0  0  0  0  0  0  0  0  0  0  0  0
   10.1760   31.8330   20.7000 C   0  0  0  0  0  0  0  0  0  0  0  0
   10.8530   31.4920   22.0320 C   0  0  0  0  0  0  0  0  0  0  0  0
   10.4050   32.3920   23.1870 C   0  0  0  0  0  0  0  0  0  0  0  0
   11.4370   32.3910   24.3210 C   0  0  0  0  0  0  0  0  0  0  0  0
   10.8930   33.0140   25.6060 C   0  0  0  0  0  0  0  0  0  0  0  0
   11.9690   33.6250   26.4710 C   0  0  0  0  0  0  0  0  0  0  0  0
   12.2730   34.8080   26.5140 O   0  0  0  0  0  0  0  0  0  0  0  0
   12.5520   32.6690   27.2370 O   0  0  0  0  0  0  0  0  0  0  0  0
    9.2090   33.6887   18.1450 H   0  0  0  0  0  0  0  0  0  0  0  0
   10.0708   33.9683   16.5939 H   0  0  0  0  0  0  0  0  0  0  0  0
    8.3043   33.6425   16.5939 H   0  0  0  0  0  0  0  0  0  0  0  0
   10.4716   31.7773   16.4053 H   0  0  0  0  0  0  0  0  0  0  0  0
    9.6007   31.5187   17.9907 H   0  0  0  0  0  0  0  0  0  0  0  0
    7.4778   31.6872   16.3905 H   0  0  0  0  0  0  0  0  0  0  0  0
    8.7091   31.0658   15.1944 H   0  0  0  0  0  0  0  0  0  0  0  0
    8.0336   29.0453   15.9339 H   0  0  0  0  0  0  0  0  0  0  0  0
    9.1690   29.4137   17.2927 H   0  0  0  0  0  0  0  0  0  0  0  0
    7.0918   28.6294   18.2199 H   0  0  0  0  0  0  0  0  0  0  0  0
    7.2674   30.4536   18.4962 H   0  0  0  0  0  0  0  0  0  0  0  0
    5.2749   29.0977   16.6093 H   0  0  0  0  0  0  0  0  0  0  0  0
    3.9400   30.9985   16.9696 H   0  0  0  0  0  0  0  0  0  0  0  0
    6.3940   32.4077   18.0258 H   0  0  0  0  0  0  0  0  0  0  0  0
    4.6766   32.9833   18.0642 H   0  0  0  0  0  0  0  0  0  0  0  0
    4.2965   31.5497   20.1600 H   0  0  0  0  0  0  0  0  0  0  0  0
    6.1606   31.6393   21.6353 H   0  0  0  0  0  0  0  0  0  0  0  0
    7.7270   32.3497   19.0467 H   0  0  0  0  0  0  0  0  0  0  0  0
    7.9660   33.2115   20.6360 H   0  0  0  0  0  0  0  0  0  0  0  0
    8.4782   30.8056   21.5316 H   0  0  0  0  0  0  0  0  0  0  0  0
    8.8188   30.4722   19.7698 H   0  0  0  0  0  0  0  0  0  0  0  0
   10.8019   31.4476   19.8816 H   0  0  0  0  0  0  0  0  0  0  0  0
   10.0685   32.9270   20.6601 H   0  0  0  0  0  0  0  0  0  0  0  0
   10.6135   30.4495   22.2886 H   0  0  0  0  0  0  0  0  0  0  0  0
   11.9336   31.6480   21.8976 H   0  0  0  0  0  0  0  0  0  0  0  0
   10.2818   33.4196   22.8145 H   0  0  0  0  0  0  0  0  0  0  0  0
    9.4531   32.0064   23.5810 H   0  0  0  0  0  0  0  0  0  0  0  0
   11.7313   31.3518   24.5296 H   0  0  0  0  0  0  0  0  0  0  0  0
   12.2954   32.9956   23.9931 H   0  0  0  0  0  0  0  0  0  0  0  0
   10.1727   33.8003   25.3359 H   0  0  0  0  0  0  0  0  0  0  0  0
   10.4238   32.2071   26.1880 H   0  0  0  0  0  0  0  0  0  0  0  0
  1  2  1  0
  2  3  1  0
  3  4  1  0
  4  5  1  0
  5  6  1  0
  6  7  2  0
  7  8  1  0
  8  9  1  0
  9 10  2  0
 10 11  1  0
 11 12  1  0
 12 13  1  0
 13 14  1  0
 14 15  1  0
 15 16  1  0
 16 17  1  0
 17 18  1  0
 18 19  2  0
 18 20  1  0
  1 21  1  0
  1 22  1  0
  1 23  1  0
  2 24  1  0
  2 25  1  0
  3 26  1  0
  3 27  1  0
  4 28  1  0
  4 29  1  0
  5 30  1  0
  5 31  1  0
  6 32  1  0
  7 33  1  0
  8 34  1  0
  8 35  1  0
  9 36  1  0
 10 37  1  0
 11 38  1  0
 11 39  1  0
 12 40  1  0
 12 41  1  0
 13 42  1  0
 13 43  1  0
 14 44  1  0
 14 45  1  0
 15 46  1  0
 15 47  1  0
 16 48  1  0
 16 49  1  0
 17 50  1  0
 17 51  1  0
M  CHG  1  20  -1
M  END
>  <meeko>  (3) 
{"is_sidechain": [false], "free_energy": -6.294, "intermolecular_energy": -11.59, "internal_energy": -1.874}

$$$$
linoleate_Clobe_run03
     RDKit          3D

 51 50  0  0  0  0  0  0  0  0999 V2000
    8.4940   29.1920   17.1520 C   0  0  0  0  0  0  0  0  0  0  0  0
    7.1950   29.5830   17.8400 C   0  0  0  0  0  0  0  0  0  0  0  0
    6.0620   29.9100   16.8660 C   0  0  0  0  0  0  0  0  0  0  0  0
    4.7980   30.4300   17.5580 C   0  0  0  0  0  0  0  0  0  0  0  0
    5.0440   31.8010   18.2010 C   0  0  0  0  0  0  0  0  0  0  0  0
    5.1270   32.9810   17.2710 C   0  0  0  0  0  0  0  0  0  0  0  0
    6.2260   33.6680   16.9210 C   0  0  0  0  0  0  0  0  0  0  0  0
    7.6020   33.3460   17.4310 C   0  0  0  0  0  0  0  0  0  0  0  0
    8.5050   32.8860   16.3250 C   0  0  0  0  0  0  0  0  0  0  0  0
    9.8160   32.6500   16.4830 C   0  0  0  0  0  0  0  0  0  0  0  0
   10.5420   32.8170   17.7880 C   0  0  0  0  0  0  0  0  0  0  0  0
   10.8800   31.4820   18.4630 C   0  0  0  0  0  0  0  0  0  0  0  0
   11.4480   31.6450   19.8770 C   0  0  0  0  0  0  0  0  0  0  0  0
   10.3680   31.8430   20.9460 C   0  0  0  0  0  0  0  0  0  0  0  0
    8.9970   31.3060   20.5280 C   0  0  0  0  0  0  0  0  0  0  0  0
    7.9350   32.4120   20.5660 C   0  0  0  0  0  0  0  0  0  0  0  0
    7.7780   33.0230   21.9580 C   0  0  0  0  0  0  0  0  0  0  0  0
    6.3390   33.1230   22.4030 C   0  0  0  0  0  0  0  0  0  0  0  0
    5.9060   33.8540   23.2810 O   0  0  0  0  0  0  0  0  0  0  0  0
    5.5620   32.2940   21.6610 O   0  0  0  0  0  0  0  0  0  0  0  0
    9.2563   28.9625   17.9111 H   0  0  0  0  0  0  0  0  0  0  0  0
    8.3237   28.3053   16.5237 H   0  0  0  0  0  0  0  0  0  0  0  0
    8.8414   30.0254   16.5237 H   0  0  0  0  0  0  0  0  0  0  0  0
    6.8742   28.7470   18.4789 H   0  0  0  0  0  0  0  0  0  0  0  0
    7.3978   30.4966   18.4181 H   0  0  0  0  0  0  0  0  0  0  0  0
    6.4166   30.6786   16.1636 H   0  0  0  0  0  0  0  0  0  0  0  0
    5.7917   28.9740   16.3552 H   0  0  0  0  0  0  0  0  0  0  0  0
    3.9930   30.5215   16.8140 H   0  0  0  0  0  0  0  0  0  0  0  0
    4.5152   29.7193   18.3485 H   0  0  0  0  0  0  0  0  0  0  0  0
    4.2214   31.9903   18.9063 H   0  0  0  0  0  0  0  0  0  0  0  0
    6.0395   31.7279   18.6631 H   0  0  0  0  0  0  0  0  0  0  0  0
    4.1790   33.3193   16.8273 H   0  0  0  0  0  0  0  0  0  0  0  0
    6.1130   34.5114   16.2239 H   0  0  0  0  0  0  0  0  0  0  0  0
    8.0322   34.2473   17.8921 H   0  0  0  0  0  0  0  0  0  0  0  0
    7.5157   32.5327   18.1666 H   0  0  0  0  0  0  0  0  0  0  0  0
    8.0671   32.7335   15.3275 H   0  0  0  0  0  0  0  0  0  0  0  0
   10.3922   32.3153   15.6078 H   0  0  0  0  0  0  0  0  0  0  0  0
   11.4791   33.3616   17.6002 H   0  0  0  0  0  0  0  0  0  0  0  0
    9.8745   33.3682   18.4667 H   0  0  0  0  0  0  0  0  0  0  0  0
    9.9622   30.8786   18.5227 H   0  0  0  0  0  0  0  0  0  0  0  0
   11.6563   30.9960   17.8538 H   0  0  0  0  0  0  0  0  0  0  0  0
   12.0254   30.7428   20.1272 H   0  0  0  0  0  0  0  0  0  0  0  0
   12.0729   32.5502   19.8743 H   0  0  0  0  0  0  0  0  0  0  0  0
   10.6831   31.3211   21.8616 H   0  0  0  0  0  0  0  0  0  0  0  0
   10.2596   32.9263   21.1030 H   0  0  0  0  0  0  0  0  0  0  0  0
    9.0641   30.9075   19.5049 H   0  0  0  0  0  0  0  0  0  0  0  0
    8.7023   30.5147   21.2330 H   0  0  0  0  0  0  0  0  0  0  0  0
    8.2268   33.2060   19.8628 H   0  0  0  0  0  0  0  0  0  0  0  0
    6.9713   31.9606   20.2878 H   0  0  0  0  0  0  0  0  0  0  0  0
    8.3244   32.3968   22.6786 H   0  0  0  0  0  0  0  0  0  0  0  0
    8.1790   34.0463   21.9137 H   0  0  0  0  0  0  0  0  0  0  0  0
  1  2  1  0
  2  3  1  0
  3  4  1  0
  4  5  1  0
  5  6  1  0
  6  7  2  0
  7  8  1  0
  8  9  1  0
  9 10  2  0
 10 11  1  0
 11 12  1  0
 12 13  1  0
 13 14  1  0
 14 15  1  0
 15 16  1  0
 16 17  1  0
 17 18  1  0
 18 19  2  0
 18 20  1  0
  1 21  1  0
  1 22  1  0
  1 23  1  0
  2 24  1  0
  2 25  1  0
  3 26  1  0
  3 27  1  0
  4 28  1  0
  4 29  1  0
  5 30  1  0
  5 31  1  0
  6 32  1  0
  7 33  1  0
  8 34  1  0
  8 35  1  0
  9 36  1  0
 10 37  1  0
 11 38  1  0
 11 39  1  0
 12 40  1  0
 12 41  1  0
 13 42  1  0
 13 43  1  0
 14 44  1  0
 14 45  1  0
 15 46  1  0
 15 47  1  0
 16 48  1  0
 16 49  1  0
 17 50  1  0
 17 51  1  0
M  CHG  1  20  -1
M  END
>  <meeko>  (4) 
{"is_sidechain": [false], "free_energy": -6.291, "intermolecular_energy": -10.935, "internal_energy": -2.524}

$$$$
linoleate_Clobe_run03
     RDKit          3D

 51 50  0  0  0  0  0  0  0  0999 V2000
    6.4270   33.3150   22.6920 C   0  0  0  0  0  0  0  0  0  0  0  0
    5.5230   32.4500   21.8280 C   0  0  0  0  0  0  0  0  0  0  0  0
    6.1640   32.0300   20.5030 C   0  0  0  0  0  0  0  0  0  0  0  0
    5.1540   31.8830   19.3610 C   0  0  0  0  0  0  0  0  0  0  0  0
    5.3120   30.5310   18.6540 C   0  0  0  0  0  0  0  0  0  0  0  0
    6.6470   29.8480   18.7860 C   0  0  0  0  0  0  0  0  0  0  0  0
    7.5590   29.6490   17.8220 C   0  0  0  0  0  0  0  0  0  0  0  0
    7.3730   30.0960   16.4000 C   0  0  0  0  0  0  0  0  0  0  0  0
    8.6130   30.7470   15.8610 C   0  0  0  0  0  0  0  0  0  0  0  0
    9.0800   31.9290   16.2900 C   0  0  0  0  0  0  0  0  0  0  0  0
    8.4200   32.7470   17.3640 C   0  0  0  0  0  0  0  0  0  0  0  0
    9.2800   32.8920   18.6240 C   0  0  0  0  0  0  0  0  0  0  0  0
   10.3820   31.8310   18.7310 C   0  0  0  0  0  0  0  0  0  0  0  0
   10.9190   31.6580   20.1560 C   0  0  0  0  0  0  0  0  0  0  0  0
    9.8230   31.6730   21.2240 C   0  0  0  0  0  0  0  0  0  0  0  0
   10.1850   32.6220   22.3740 C   0  0  0  0  0  0  0  0  0  0  0  0
   10.7690   31.8840   23.5780 C   0  0  0  0  0  0  0  0  0  0  0  0
   12.2390   32.1550   23.7830 C   0  0  0  0  0  0  0  0  0  0  0  0
   13.1490   31.7770   23.0610 O   0  0  0  0  0  0  0  0  0  0  0  0
   12.4230   32.9190   24.8900 O   0  0  0  0  0  0  0  0  0  0  0  0
    6.2192   33.1162   23.7537 H   0  0  0  0  0  0  0  0  0  0  0  0
    7.4788   33.0784   22.4737 H   0  0  0  0  0  0  0  0  0  0  0  0
    6.2370   34.3762   22.4737 H   0  0  0  0  0  0  0  0  0  0  0  0
    5.2656   31.5422   22.3934 H   0  0  0  0  0  0  0  0  0  0  0  0
    4.6369   33.0535   21.5817 H   0  0  0  0  0  0  0  0  0  0  0  0
    6.9057   32.7905   20.2174 H   0  0  0  0  0  0  0  0  0  0  0  0
    6.6225   31.0428   20.6614 H   0  0  0  0  0  0  0  0  0  0  0  0
    4.1357   31.9574   19.7703 H   0  0  0  0  0  0  0  0  0  0  0  0
    5.3361   32.6833   18.6287 H   0  0  0  0  0  0  0  0  0  0  0  0
    4.5488   29.8514   19.0610 H   0  0  0  0  0  0  0  0  0  0  0  0
    5.2069   30.7529   17.5817 H   0  0  0  0  0  0  0  0  0  0  0  0
    6.9041   29.4691   19.7862 H   0  0  0  0  0  0  0  0  0  0  0  0
    8.4925   29.1310   18.0872 H   0  0  0  0  0  0  0  0  0  0  0  0
    7.1301   29.2210   15.7792 H   0  0  0  0  0  0  0  0  0  0  0  0
    6.5572   30.8334   16.3741 H   0  0  0  0  0  0  0  0  0  0  0  0
    9.1706   30.2253   15.0692 H   0  0  0  0  0  0  0  0  0  0  0  0
    9.9984   32.3219   15.8294 H   0  0  0  0  0  0  0  0  0  0  0  0
    8.2146   33.7505   16.9631 H   0  0  0  0  0  0  0  0  0  0  0  0
    7.4978   32.2227   17.6552 H   0  0  0  0  0  0  0  0  0  0  0  0
    9.7518   33.8856   18.6124 H   0  0  0  0  0  0  0  0  0  0  0  0
    8.6147   32.7595   19.4899 H   0  0  0  0  0  0  0  0  0  0  0  0
    9.9734   30.8675   18.3923 H   0  0  0  0  0  0  0  0  0  0  0  0
   11.2212   32.1678   18.1047 H   0  0  0  0  0  0  0  0  0  0  0  0
   11.4497   30.6963   20.2144 H   0  0  0  0  0  0  0  0  0  0  0  0
   11.5824   32.5116   20.3591 H   0  0  0  0  0  0  0  0  0  0  0  0
    8.8800   32.0066   20.7663 H   0  0  0  0  0  0  0  0  0  0  0  0
    9.7173   30.6563   21.6303 H   0  0  0  0  0  0  0  0  0  0  0  0
   10.9268   33.3489   22.0116 H   0  0  0  0  0  0  0  0  0  0  0  0
    9.2600   33.1187   22.7021 H   0  0  0  0  0  0  0  0  0  0  0  0
   10.2255   32.2012   24.4802 H   0  0  0  0  0  0  0  0  0  0  0  0
   10.6579   30.8064   23.3874 H   0  0  0  0  0  0  0  0  0  0  0  0
  1  2  1  0
  2  3  1  0
  3  4  1  0
  4  5  1  0
  5  6  1  0
  6  7  2  0
  7  8  1  0
  8  9  1  0
  9 10  2  0
 10 11  1  0
 11 12  1  0
 12 13  1  0
 13 14  1  0
 14 15  1  0
 15 16  1  0
 16 17  1  0
 17 18  1  0
 18 19  2  0
 18 20  1  0
  1 21  1  0
  1 22  1  0
  1 23  1  0
  2 24  1  0
  2 25  1  0
  3 26  1  0
  3 27  1  0
  4 28  1  0
  4 29  1  0
  5 30  1  0
  5 31  1  0
  6 32  1  0
  7 33  1  0
  8 34  1  0
  8 35  1  0
  9 36  1  0
 10 37  1  0
 11 38  1  0
 11 39  1  0
 12 40  1  0
 12 41  1  0
 13 42  1  0
 13 43  1  0
 14 44  1  0
 14 45  1  0
 15 46  1  0
 15 47  1  0
 16 48  1  0
 16 49  1  0
 17 50  1  0
 17 51  1  0
M  CHG  1  20  -1
M  END
>  <meeko>  (5) 
{"is_sidechain": [false], "free_energy": -6.254, "intermolecular_energy": -11.301, "internal_energy": -2.089}

$$$$
linoleate_Clobe_run03
     RDKit          3D

 51 50  0  0  0  0  0  0  0  0999 V2000
    5.9780   32.1850   20.9990 C   0  0  0  0  0  0  0  0  0  0  0  0
    5.4240   31.3120   19.8840 C   0  0  0  0  0  0  0  0  0  0  0  0
    4.9810   32.1030   18.6510 C   0  0  0  0  0  0  0  0  0  0  0  0
    4.7960   31.2320   17.4060 C   0  0  0  0  0  0  0  0  0  0  0  0
    5.5700   29.9140   17.5330 C   0  0  0  0  0  0  0  0  0  0  0  0
    6.6400   29.6530   16.5080 C   0  0  0  0  0  0  0  0  0  0  0  0
    7.9660   29.7940   16.6600 C   0  0  0  0  0  0  0  0  0  0  0  0
    8.6100   30.2570   17.9370 C   0  0  0  0  0  0  0  0  0  0  0  0
    8.8610   31.7350   17.9220 C   0  0  0  0  0  0  0  0  0  0  0  0
    9.3210   32.4240   18.9780 C   0  0  0  0  0  0  0  0  0  0  0  0
    9.6420   31.7980   20.3050 C   0  0  0  0  0  0  0  0  0  0  0  0
   11.1210   31.4220   20.4510 C   0  0  0  0  0  0  0  0  0  0  0  0
   11.6230   31.4870   21.8980 C   0  0  0  0  0  0  0  0  0  0  0  0
   10.6610   32.2160   22.8410 C   0  0  0  0  0  0  0  0  0  0  0  0
   11.1610   32.2800   24.2870 C   0  0  0  0  0  0  0  0  0  0  0  0
   10.1470   32.9900   25.1920 C   0  0  0  0  0  0  0  0  0  0  0  0
   10.5830   33.0050   26.6560 C   0  0  0  0  0  0  0  0  0  0  0  0
   11.9600   33.5890   26.8590 C   0  0  0  0  0  0  0  0  0  0  0  0
   12.3250   34.7060   26.5260 O   0  0  0  0  0  0  0  0  0  0  0  0
   12.7550   32.6980   27.5050 O   0  0  0  0  0  0  0  0  0  0  0  0
    5.7041   31.7534   21.9730 H   0  0  0  0  0  0  0  0  0  0  0  0
    7.0737   32.2353   20.9153 H   0  0  0  0  0  0  0  0  0  0  0  0
    5.5570   33.1978   20.9153 H   0  0  0  0  0  0  0  0  0  0  0  0
    6.2051   30.6002   19.5787 H   0  0  0  0  0  0  0  0  0  0  0  0
    4.5314   30.8073   20.2820 H   0  0  0  0  0  0  0  0  0  0  0  0
    4.0239   32.5955   18.8777 H   0  0  0  0  0  0  0  0  0  0  0  0
    5.7774   32.8275   18.4258 H   0  0  0  0  0  0  0  0  0  0  0  0
    3.7262   31.0094   17.2792 H   0  0  0  0  0  0  0  0  0  0  0  0
    5.1830   31.7814   16.5351 H   0  0  0  0  0  0  0  0  0  0  0  0
    6.0485   29.9035   18.5234 H   0  0  0  0  0  0  0  0  0  0  0  0
    4.8209   29.1244   17.3739 H   0  0  0  0  0  0  0  0  0  0  0  0
    6.2964   29.3073   15.5219 H   0  0  0  0  0  0  0  0  0  0  0  0
    8.6162   29.5582   15.8046 H   0  0  0  0  0  0  0  0  0  0  0  0
    7.9458   30.0159   18.7800 H   0  0  0  0  0  0  0  0  0  0  0  0
    9.5774   29.7439   18.0411 H   0  0  0  0  0  0  0  0  0  0  0  0
    8.6565   32.2863   16.9924 H   0  0  0  0  0  0  0  0  0  0  0  0
    9.4713   33.5078   18.8653 H   0  0  0  0  0  0  0  0  0  0  0  0
    9.3821   32.5117   21.1007 H   0  0  0  0  0  0  0  0  0  0  0  0
    9.0586   30.8683   20.3786 H   0  0  0  0  0  0  0  0  0  0  0  0
   11.2587   30.3959   20.0794 H   0  0  0  0  0  0  0  0  0  0  0  0
   11.7022   32.1542   19.8712 H   0  0  0  0  0  0  0  0  0  0  0  0
   11.7612   30.4597   22.2661 H   0  0  0  0  0  0  0  0  0  0  0  0
   12.5650   32.0550   21.8908 H   0  0  0  0  0  0  0  0  0  0  0  0
   10.5238   33.2436   22.4734 H   0  0  0  0  0  0  0  0  0  0  0  0
    9.7189   31.6482   22.8473 H   0  0  0  0  0  0  0  0  0  0  0  0
   11.3185   31.2565   24.6581 H   0  0  0  0  0  0  0  0  0  0  0  0
   12.1029   32.8479   24.3057 H   0  0  0  0  0  0  0  0  0  0  0  0
   10.0320   34.0282   24.8471 H   0  0  0  0  0  0  0  0  0  0  0  0
    9.1980   32.4372   25.1305 H   0  0  0  0  0  0  0  0  0  0  0  0
    9.8608   33.6041   27.2300 H   0  0  0  0  0  0  0  0  0  0  0  0
   10.6167   31.9602   26.9984 H   0  0  0  0  0  0  0  0  0  0  0  0
  1  2  1  0
  2  3  1  0
  3  4  1  0
  4  5  1  0
  5  6  1  0
  6  7  2  0
  7  8  1  0
  8  9  1  0
  9 10  2  0
 10 11  1  0
 11 12  1  0
 12 13  1  0
 13 14  1  0
 14 15  1  0
 15 16  1  0
 16 17  1  0
 17 18  1  0
 18 19  2  0
 18 20  1  0
  1 21  1  0
  1 22  1  0
  1 23  1  0
  2 24  1  0
  2 25  1  0
  3 26  1  0
  3 27  1  0
  4 28  1  0
  4 29  1  0
  5 30  1  0
  5 31  1  0
  6 32  1  0
  7 33  1  0
  8 34  1  0
  8 35  1  0
  9 36  1  0
 10 37  1  0
 11 38  1  0
 11 39  1  0
 12 40  1  0
 12 41  1  0
 13 42  1  0
 13 43  1  0
 14 44  1  0
 14 45  1  0
 15 46  1  0
 15 47  1  0
 16 48  1  0
 16 49  1  0
 17 50  1  0
 17 51  1  0
M  CHG  1  20  -1
M  END
>  <meeko>  (6) 
{"is_sidechain": [false], "free_energy": -6.225, "intermolecular_energy": -11.622, "internal_energy": -1.717}

$$$$
linoleate_Clobe_run03
     RDKit          3D

 51 50  0  0  0  0  0  0  0  0999 V2000
    4.3840   31.4970   17.1820 C   0  0  0  0  0  0  0  0  0  0  0  0
    5.1880   32.1290   18.3080 C   0  0  0  0  0  0  0  0  0  0  0  0
    6.0780   31.1350   19.0560 C   0  0  0  0  0  0  0  0  0  0  0  0
    6.2760   29.8140   18.3070 C   0  0  0  0  0  0  0  0  0  0  0  0
    7.7150   29.6790   17.7950 C   0  0  0  0  0  0  0  0  0  0  0  0
    7.9980   30.2110   16.4160 C   0  0  0  0  0  0  0  0  0  0  0  0
    8.5550   31.3890   16.0950 C   0  0  0  0  0  0  0  0  0  0  0  0
    9.0000   32.4010   17.1130 C   0  0  0  0  0  0  0  0  0  0  0  0
   10.3780   32.1000   17.6220 C   0  0  0  0  0  0  0  0  0  0  0  0
   10.6560   31.8380   18.9090 C   0  0  0  0  0  0  0  0  0  0  0  0
    9.6210   31.8140   19.9970 C   0  0  0  0  0  0  0  0  0  0  0  0
   10.1940   31.4210   21.3640 C   0  0  0  0  0  0  0  0  0  0  0  0
   10.0350   32.5150   22.4250 C   0  0  0  0  0  0  0  0  0  0  0  0
   10.6510   32.1420   23.7780 C   0  0  0  0  0  0  0  0  0  0  0  0
   12.1810   32.1110   23.7600 C   0  0  0  0  0  0  0  0  0  0  0  0
   12.7640   32.9590   24.8980 C   0  0  0  0  0  0  0  0  0  0  0  0
   11.7380   33.2510   25.9920 C   0  0  0  0  0  0  0  0  0  0  0  0
   12.3690   33.6070   27.3170 C   0  0  0  0  0  0  0  0  0  0  0  0
   12.8840   32.8260   28.1010 O   0  0  0  0  0  0  0  0  0  0  0  0
   12.3130   34.9490   27.5150 O   0  0  0  0  0  0  0  0  0  0  0  0
    3.5866   30.8702   17.6078 H   0  0  0  0  0  0  0  0  0  0  0  0
    3.9369   32.2880   16.5619 H   0  0  0  0  0  0  0  0  0  0  0  0
    5.0470   30.8758   16.5619 H   0  0  0  0  0  0  0  0  0  0  0  0
    5.8275   32.9152   17.8802 H   0  0  0  0  0  0  0  0  0  0  0  0
    4.4662   32.5278   19.0360 H   0  0  0  0  0  0  0  0  0  0  0  0
    7.0633   31.5983   19.2126 H   0  0  0  0  0  0  0  0  0  0  0  0
    5.5747   30.8983   20.0051 H   0  0  0  0  0  0  0  0  0  0  0  0
    6.0574   28.9786   18.9884 H   0  0  0  0  0  0  0  0  0  0  0  0
    5.5952   29.7972   17.4432 H   0  0  0  0  0  0  0  0  0  0  0  0
    8.3700   30.2136   18.4987 H   0  0  0  0  0  0  0  0  0  0  0  0
    7.8960   28.5961   17.7281 H   0  0  0  0  0  0  0  0  0  0  0  0
    7.7162   29.5601   15.5753 H   0  0  0  0  0  0  0  0  0  0  0  0
    8.6932   31.6265   15.0299 H   0  0  0  0  0  0  0  0  0  0  0  0
    9.0004   33.3983   16.6489 H   0  0  0  0  0  0  0  0  0  0  0  0
    8.3028   32.3646   17.9630 H   0  0  0  0  0  0  0  0  0  0  0  0
   11.2079   32.0935   16.9001 H   0  0  0  0  0  0  0  0  0  0  0  0
   11.7009   31.6291   19.1821 H   0  0  0  0  0  0  0  0  0  0  0  0
    9.1761   32.8167   20.0791 H   0  0  0  0  0  0  0  0  0  0  0  0
    8.8750   31.0534   19.7232 H   0  0  0  0  0  0  0  0  0  0  0  0
    9.6738   30.5171   21.7138 H   0  0  0  0  0  0  0  0  0  0  0  0
   11.2726   31.2524   21.2289 H   0  0  0  0  0  0  0  0  0  0  0  0
   10.5241   33.4298   22.0591 H   0  0  0  0  0  0  0  0  0  0  0  0
    8.9563   32.6576   22.5865 H   0  0  0  0  0  0  0  0  0  0  0  0
   10.3258   32.8810   24.5251 H   0  0  0  0  0  0  0  0  0  0  0  0
   10.3079   31.1259   24.0225 H   0  0  0  0  0  0  0  0  0  0  0  0
   12.5207   31.0713   23.8764 H   0  0  0  0  0  0  0  0  0  0  0  0
   12.5276   32.5260   22.8021 H   0  0  0  0  0  0  0  0  0  0  0  0
   13.6112   32.4172   25.3438 H   0  0  0  0  0  0  0  0  0  0  0  0
   13.0810   33.9216   24.4702 H   0  0  0  0  0  0  0  0  0  0  0  0
   11.1092   34.0928   25.6664 H   0  0  0  0  0  0  0  0  0  0  0  0
   11.1513   32.3331   26.1445 H   0  0  0  0  0  0  0  0  0  0  0  0
  1  2  1  0
  2  3  1  0
  3  4  1  0
  4  5  1  0
  5  6  1  0
  6  7  2  0
  7  8  1  0
  8  9  1  0
  9 10  2  0
 10 11  1  0
 11 12  1  0
 12 13  1  0
 13 14  1  0
 14 15  1  0
 15 16  1  0
 16 17  1  0
 17 18  1  0
 18 19  2  0
 18 20  1  0
  1 21  1  0
  1 22  1  0
  1 23  1  0
  2 24  1  0
  2 25  1  0
  3 26  1  0
  3 27  1  0
  4 28  1  0
  4 29  1  0
  5 30  1  0
  5 31  1  0
  6 32  1  0
  7 33  1  0
  8 34  1  0
  8 35  1  0
  9 36  1  0
 10 37  1  0
 11 38  1  0
 11 39  1  0
 12 40  1  0
 12 41  1  0
 13 42  1  0
 13 43  1  0
 14 44  1  0
 14 45  1  0
 15 46  1  0
 15 47  1  0
 16 48  1  0
 16 49  1  0
 17 50  1  0
 17 51  1  0
M  CHG  1  20  -1
M  END
>  <meeko>  (7) 
{"is_sidechain": [false], "free_energy": -6.19, "intermolecular_energy": -11.639, "internal_energy": -1.636}

$$$$
linoleate_Clobe_run03
     RDKit          3D

 51 50  0  0  0  0  0  0  0  0999 V2000
    7.8160   33.1380   16.8860 C   0  0  0  0  0  0  0  0  0  0  0  0
    8.9450   32.5600   16.0480 C   0  0  0  0  0  0  0  0  0  0  0  0
   10.3130   32.6390   16.7280 C   0  0  0  0  0  0  0  0  0  0  0  0
   10.2270   32.9010   18.2350 C   0  0  0  0  0  0  0  0  0  0  0  0
   10.4530   31.6110   19.0340 C   0  0  0  0  0  0  0  0  0  0  0  0
   11.6440   31.5830   19.9540 C   0  0  0  0  0  0  0  0  0  0  0  0
   11.6380   31.4580   21.2900 C   0  0  0  0  0  0  0  0  0  0  0  0
   10.3830   31.3220   22.1050 C   0  0  0  0  0  0  0  0  0  0  0  0
   10.0770   32.5830   22.8580 C   0  0  0  0  0  0  0  0  0  0  0  0
    8.9700   33.3170   22.6640 C   0  0  0  0  0  0  0  0  0  0  0  0
    7.9000   32.9650   21.6700 C   0  0  0  0  0  0  0  0  0  0  0  0
    6.4960   32.9300   22.2840 C   0  0  0  0  0  0  0  0  0  0  0  0
    5.4580   32.2510   21.3850 C   0  0  0  0  0  0  0  0  0  0  0  0
    5.9850   31.9360   19.9800 C   0  0  0  0  0  0  0  0  0  0  0  0
    4.9680   31.2050   19.1010 C   0  0  0  0  0  0  0  0  0  0  0  0
    5.6430   30.1060   18.2710 C   0  0  0  0  0  0  0  0  0  0  0  0
    7.1490   30.0310   18.5190 C   0  0  0  0  0  0  0  0  0  0  0  0
    7.8980   29.3220   17.4160 C   0  0  0  0  0  0  0  0  0  0  0  0
    9.0070   28.8190   17.5070 O   0  0  0  0  0  0  0  0  0  0  0  0
    7.1450   29.2890   16.2870 O   0  0  0  0  0  0  0  0  0  0  0  0
    8.0526   33.0169   17.9534 H   0  0  0  0  0  0  0  0  0  0  0  0
    7.6985   34.2071   16.6555 H   0  0  0  0  0  0  0  0  0  0  0  0
    6.8800   32.6082   16.6555 H   0  0  0  0  0  0  0  0  0  0  0  0
    8.7194   31.5033   15.8416 H   0  0  0  0  0  0  0  0  0  0  0  0
    9.0058   33.1613   15.1289 H   0  0  0  0  0  0  0  0  0  0  0  0
   10.8375   31.6853   16.5689 H   0  0  0  0  0  0  0  0  0  0  0  0
   10.8507   33.4877   16.2802 H   0  0  0  0  0  0  0  0  0  0  0  0
   10.9949   33.6368   18.5161 H   0  0  0  0  0  0  0  0  0  0  0  0
    9.2219   33.2834   18.4662 H   0  0  0  0  0  0  0  0  0  0  0  0
    9.5556   31.4369   19.6458 H   0  0  0  0  0  0  0  0  0  0  0  0
   10.6536   30.8362   18.2794 H   0  0  0  0  0  0  0  0  0  0  0  0
   12.6310   31.6755   19.4772 H   0  0  0  0  0  0  0  0  0  0  0  0
   12.6036   31.4549   21.8168 H   0  0  0  0  0  0  0  0  0  0  0  0
    9.5429   31.0946   21.4323 H   0  0  0  0  0  0  0  0  0  0  0  0
   10.5312   30.5119   22.8342 H   0  0  0  0  0  0  0  0  0  0  0  0
   10.8010   32.9256   23.6120 H   0  0  0  0  0  0  0  0  0  0  0  0
    8.8389   34.2277   23.2669 H   0  0  0  0  0  0  0  0  0  0  0  0
    7.9110   33.7137   20.8642 H   0  0  0  0  0  0  0  0  0  0  0  0
    8.1196   31.9540   21.2964 H   0  0  0  0  0  0  0  0  0  0  0  0
    6.5450   32.3817   23.2364 H   0  0  0  0  0  0  0  0  0  0  0  0
    6.1748   33.9730   22.4221 H   0  0  0  0  0  0  0  0  0  0  0  0
    5.1472   31.3090   21.8605 H   0  0  0  0  0  0  0  0  0  0  0  0
    4.6193   32.9532   21.2683 H   0  0  0  0  0  0  0  0  0  0  0  0
    6.2549   32.8822   19.4883 H   0  0  0  0  0  0  0  0  0  0  0  0
    6.8512   31.2686   20.0994 H   0  0  0  0  0  0  0  0  0  0  0  0
    4.2001   30.7493   19.7434 H   0  0  0  0  0  0  0  0  0  0  0  0
    4.5145   31.9333   18.4126 H   0  0  0  0  0  0  0  0  0  0  0  0
    5.1929   29.1375   18.5345 H   0  0  0  0  0  0  0  0  0  0  0  0
    5.4895   30.3460   17.2085 H   0  0  0  0  0  0  0  0  0  0  0  0
    7.5407   31.0553   18.6055 H   0  0  0  0  0  0  0  0  0  0  0  0
    7.3003   29.4520   19.4420 H   0  0  0  0  0  0  0  0  0  0  0  0
  1  2  1  0
  2  3  1  0
  3  4  1  0
  4  5  1  0
  5  6  1  0
  6  7  2  0
  7  8  1  0
  8  9  1  0
  9 10  2  0
 10 11  1  0
 11 12  1  0
 12 13  1  0
 13 14  1  0
 14 15  1  0
 15 16  1  0
 16 17  1  0
 17 18  1  0
 18 19  2  0
 18 20  1  0
  1 21  1  0
  1 22  1  0
  1 23  1  0
  2 24  1  0
  2 25  1  0
  3 26  1  0
  3 27  1  0
  4 28  1  0
  4 29  1  0
  5 30  1  0
  5 31  1  0
  6 32  1  0
  7 33  1  0
  8 34  1  0
  8 35  1  0
  9 36  1  0
 10 37  1  0
 11 38  1  0
 11 39  1  0
 12 40  1  0
 12 41  1  0
 13 42  1  0
 13 43  1  0
 14 44  1  0
 14 45  1  0
 15 46  1  0
 15 47  1  0
 16 48  1  0
 16 49  1  0
 17 50  1  0
 17 51  1  0
M  CHG  1  20  -1
M  END
>  <meeko>  (8) 
{"is_sidechain": [false], "free_energy": -6.163, "intermolecular_energy": -11.013, "internal_energy": -2.213}

$$$$
linoleate_Clobe_run03
     RDKit          3D

 51 50  0  0  0  0  0  0  0  0999 V2000
    5.7030   31.9010   19.3300 C   0  0  0  0  0  0  0  0  0  0  0  0
    5.3510   30.7290   18.4280 C   0  0  0  0  0  0  0  0  0  0  0  0
    6.4550   29.6720   18.3410 C   0  0  0  0  0  0  0  0  0  0  0  0
    7.1240   29.6060   16.9650 C   0  0  0  0  0  0  0  0  0  0  0  0
    8.6050   29.9960   17.0510 C   0  0  0  0  0  0  0  0  0  0  0  0
    8.9260   31.4630   16.9570 C   0  0  0  0  0  0  0  0  0  0  0  0
    9.6650   32.1920   17.8090 C   0  0  0  0  0  0  0  0  0  0  0  0
   10.3080   31.6250   19.0420 C   0  0  0  0  0  0  0  0  0  0  0  0
    9.3950   31.7130   20.2290 C   0  0  0  0  0  0  0  0  0  0  0  0
    9.8270   31.7650   21.4990 C   0  0  0  0  0  0  0  0  0  0  0  0
   11.2780   31.7430   21.8880 C   0  0  0  0  0  0  0  0  0  0  0  0
   11.5100   32.0870   23.3640 C   0  0  0  0  0  0  0  0  0  0  0  0
   10.2350   32.5250   24.0920 C   0  0  0  0  0  0  0  0  0  0  0  0
   10.4910   33.0190   25.5200 C   0  0  0  0  0  0  0  0  0  0  0  0
   11.9620   33.3400   25.7950 C   0  0  0  0  0  0  0  0  0  0  0  0
   12.0990   34.5590   26.7160 C   0  0  0  0  0  0  0  0  0  0  0  0
   10.7520   35.2090   27.0280 C   0  0  0  0  0  0  0  0  0  0  0  0
   10.3930   35.1560   28.4930 C   0  0  0  0  0  0  0  0  0  0  0  0
   10.6200   34.2300   29.2570 O   0  0  0  0  0  0  0  0  0  0  0  0
    9.7940   36.3150   28.8700 O   0  0  0  0  0  0  0  0  0  0  0  0
    5.6109   31.5943   20.3824 H   0  0  0  0  0  0  0  0  0  0  0  0
    6.7366   32.2200   19.1301 H   0  0  0  0  0  0  0  0  0  0  0  0
    5.0162   32.7367   19.1301 H   0  0  0  0  0  0  0  0  0  0  0  0
    4.4408   30.2504   18.8184 H   0  0  0  0  0  0  0  0  0  0  0  0
    5.2086   31.1322   17.4145 H   0  0  0  0  0  0  0  0  0  0  0  0
    7.2236   29.9074   19.0919 H   0  0  0  0  0  0  0  0  0  0  0  0
    5.9846   28.6942   18.5216 H   0  0  0  0  0  0  0  0  0  0  0  0
    7.0448   28.5801   16.5760 H   0  0  0  0  0  0  0  0  0  0  0  0
    6.6148   30.3143   16.2949 H   0  0  0  0  0  0  0  0  0  0  0  0
    8.9897   29.6321   18.0152 H   0  0  0  0  0  0  0  0  0  0  0  0
    9.0747   29.5410   16.1665 H   0  0  0  0  0  0  0  0  0  0  0  0
    8.5079   31.9992   16.0923 H   0  0  0  0  0  0  0  0  0  0  0  0
    9.8068   33.2611   17.5922 H   0  0  0  0  0  0  0  0  0  0  0  0
   10.5582   30.5692   18.8612 H   0  0  0  0  0  0  0  0  0  0  0  0
   11.2134   32.2107   19.2592 H   0  0  0  0  0  0  0  0  0  0  0  0
    8.3101   31.7362   20.0486 H   0  0  0  0  0  0  0  0  0  0  0  0
    9.0760   31.8272   22.3003 H   0  0  0  0  0  0  0  0  0  0  0  0
   11.6766   30.7358   21.6964 H   0  0  0  0  0  0  0  0  0  0  0  0
   11.7902   32.5096   21.2880 H   0  0  0  0  0  0  0  0  0  0  0  0
   11.9132   31.1977   23.8705 H   0  0  0  0  0  0  0  0  0  0  0  0
   12.2102   32.9348   23.3947 H   0  0  0  0  0  0  0  0  0  0  0  0
    9.7684   33.3399   23.5191 H   0  0  0  0  0  0  0  0  0  0  0  0
    9.5822   31.6426   24.1648 H   0  0  0  0  0  0  0  0  0  0  0  0
    9.8979   33.9304   25.6857 H   0  0  0  0  0  0  0  0  0  0  0  0
   10.2017   32.2064   26.2026 H   0  0  0  0  0  0  0  0  0  0  0  0
   12.4353   32.4714   26.2761 H   0  0  0  0  0  0  0  0  0  0  0  0
   12.4543   33.5683   24.8382 H   0  0  0  0  0  0  0  0  0  0  0  0
   12.5631   34.2378   27.6601 H   0  0  0  0  0  0  0  0  0  0  0  0
   12.7179   35.3044   26.1951 H   0  0  0  0  0  0  0  0  0  0  0  0
   10.7913   36.2629   26.7153 H   0  0  0  0  0  0  0  0  0  0  0  0
    9.9818   34.6451   26.4814 H   0  0  0  0  0  0  0  0  0  0  0  0
  1  2  1  0
  2  3  1  0
  3  4  1  0
  4  5  1  0
  5  6  1  0
  6  7  2  0
  7  8  1  0
  8  9  1  0
  9 10  2  0
 10 11  1  0
 11 12  1  0
 12 13  1  0
 13 14  1  0
 14 15  1  0
 15 16  1  0
 16 17  1  0
 17 18  1  0
 18 19  2  0
 18 20  1  0
  1 21  1  0
  1 22  1  0
  1 23  1  0
  2 24  1  0
  2 25  1  0
  3 26  1  0
  3 27  1  0
  4 28  1  0
  4 29  1  0
  5 30  1  0
  5 31  1  0
  6 32  1  0
  7 33  1  0
  8 34  1  0
  8 35  1  0
  9 36  1  0
 10 37  1  0
 11 38  1  0
 11 39  1  0
 12 40  1  0
 12 41  1  0
 13 42  1  0
 13 43  1  0
 14 44  1  0
 14 45  1  0
 15 46  1  0
 15 47  1  0
 16 48  1  0
 16 49  1  0
 17 50  1  0
 17 51  1  0
M  CHG  1  20  -1
M  END
>  <meeko>  (9) 
{"is_sidechain": [false], "free_energy": -6.111, "intermolecular_energy": -11.678, "internal_energy": -1.453}

$$$$
linoleate_Clobe_run03
     RDKit          3D

 51 50  0  0  0  0  0  0  0  0999 V2000
   13.1650   35.9610   27.8440 C   0  0  0  0  0  0  0  0  0  0  0  0
   12.0890   35.3180   28.7050 C   0  0  0  0  0  0  0  0  0  0  0  0
   10.6980   35.3470   28.0680 C   0  0  0  0  0  0  0  0  0  0  0  0
   10.7120   35.0540   26.5650 C   0  0  0  0  0  0  0  0  0  0  0  0
   10.8870   33.5540   26.2970 C   0  0  0  0  0  0  0  0  0  0  0  0
   12.1620   33.1310   25.6180 C   0  0  0  0  0  0  0  0  0  0  0  0
   12.2870   32.5090   24.4350 C   0  0  0  0  0  0  0  0  0  0  0  0
   11.1190   32.1230   23.5730 C   0  0  0  0  0  0  0  0  0  0  0  0
   11.5680   31.5640   22.2550 C   0  0  0  0  0  0  0  0  0  0  0  0
   10.8010   31.5440   21.1540 C   0  0  0  0  0  0  0  0  0  0  0  0
    9.3990   32.0800   21.1050 C   0  0  0  0  0  0  0  0  0  0  0  0
    8.5060   31.3380   20.1030 C   0  0  0  0  0  0  0  0  0  0  0  0
    7.3780   32.2070   19.5370 C   0  0  0  0  0  0  0  0  0  0  0  0
    5.9910   31.8140   20.0570 C   0  0  0  0  0  0  0  0  0  0  0  0
    5.2770   30.7920   19.1680 C   0  0  0  0  0  0  0  0  0  0  0  0
    5.5350   31.0760   17.6830 C   0  0  0  0  0  0  0  0  0  0  0  0
    5.9530   29.8240   16.9140 C   0  0  0  0  0  0  0  0  0  0  0  0
    7.4500   29.6360   16.8570 C   0  0  0  0  0  0  0  0  0  0  0  0
    8.2150   30.1820   16.0770 O   0  0  0  0  0  0  0  0  0  0  0  0
    7.8500   28.7780   17.8300 O   0  0  0  0  0  0  0  0  0  0  0  0
   13.9285   36.4172   28.4913 H   0  0  0  0  0  0  0  0  0  0  0  0
   13.6331   35.1945   27.2090 H   0  0  0  0  0  0  0  0  0  0  0  0
   12.7117   36.7364   27.2090 H   0  0  0  0  0  0  0  0  0  0  0  0
   12.3677   34.2692   28.8846 H   0  0  0  0  0  0  0  0  0  0  0  0
   12.0300   35.8999   29.6366 H   0  0  0  0  0  0  0  0  0  0  0  0
   10.0710   34.5919   28.5648 H   0  0  0  0  0  0  0  0  0  0  0  0
   10.3026   36.3653   28.1970 H   0  0  0  0  0  0  0  0  0  0  0  0
    9.7613   35.3892   26.1247 H   0  0  0  0  0  0  0  0  0  0  0  0
   11.5583   35.5912   26.1120 H   0  0  0  0  0  0  0  0  0  0  0  0
   10.8374   33.0347   27.2655 H   0  0  0  0  0  0  0  0  0  0  0  0
   10.0843   33.2916   25.5922 H   0  0  0  0  0  0  0  0  0  0  0  0
   13.0970   33.3571   26.1515 H   0  0  0  0  0  0  0  0  0  0  0  0
   13.2993   32.2691   24.0776 H   0  0  0  0  0  0  0  0  0  0  0  0
   10.5226   31.3629   24.0989 H   0  0  0  0  0  0  0  0  0  0  0  0
   10.5208   33.0255   23.3788 H   0  0  0  0  0  0  0  0  0  0  0  0
   12.5836   31.1469   22.1874 H   0  0  0  0  0  0  0  0  0  0  0  0
   11.2231   31.1105   20.2354 H   0  0  0  0  0  0  0  0  0  0  0  0
    8.9535   31.9873   22.1065 H   0  0  0  0  0  0  0  0  0  0  0  0
    9.4598   33.1281   20.7767 H   0  0  0  0  0  0  0  0  0  0  0  0
    9.1320   30.9909   19.2677 H   0  0  0  0  0  0  0  0  0  0  0  0
    8.0347   30.5033   20.6425 H   0  0  0  0  0  0  0  0  0  0  0  0
    7.5711   33.2538   19.8142 H   0  0  0  0  0  0  0  0  0  0  0  0
    7.3705   32.0616   18.4467 H   0  0  0  0  0  0  0  0  0  0  0  0
    6.1046   31.3828   21.0625 H   0  0  0  0  0  0  0  0  0  0  0  0
    5.3756   32.7257   20.0635 H   0  0  0  0  0  0  0  0  0  0  0  0
    5.6464   29.7847   19.4106 H   0  0  0  0  0  0  0  0  0  0  0  0
    4.1952   30.8624   19.3543 H   0  0  0  0  0  0  0  0  0  0  0  0
    4.6132   31.4747   17.2344 H   0  0  0  0  0  0  0  0  0  0  0  0
    6.3607   31.7999   17.6188 H   0  0  0  0  0  0  0  0  0  0  0  0
    5.5084   28.9463   17.4059 H   0  0  0  0  0  0  0  0  0  0  0  0
    5.5975   29.9405   15.8796 H   0  0  0  0  0  0  0  0  0  0  0  0
  1  2  1  0
  2  3  1  0
  3  4  1  0
  4  5  1  0
  5  6  1  0
  6  7  2  0
  7  8  1  0
  8  9  1  0
  9 10  2  0
 10 11  1  0
 11 12  1  0
 12 13  1  0
 13 14  1  0
 14 15  1  0
 15 16  1  0
 16 17  1  0
 17 18  1  0
 18 19  2  0
 18 20  1  0
  1 21  1  0
  1 22  1  0
  1 23  1  0
  2 24  1  0
  2 25  1  0
  3 26  1  0
  3 27  1  0
  4 28  1  0
  4 29  1  0
  5 30  1  0
  5 31  1  0
  6 32  1  0
  7 33  1  0
  8 34  1  0
  8 35  1  0
  9 36  1  0
 10 37  1  0
 11 38  1  0
 11 39  1  0
 12 40  1  0
 12 41  1  0
 13 42  1  0
 13 43  1  0
 14 44  1  0
 14 45  1  0
 15 46  1  0
 15 47  1  0
 16 48  1  0
 16 49  1  0
 17 50  1  0
 17 51  1  0
M  CHG  1  20  -1
M  END
>  <meeko>  (10) 
{"is_sidechain": [false], "free_energy": -6.102, "intermolecular_energy": -12.066, "internal_energy": -1.048}

$$$$
linoleate_Clobe_run03
     RDKit          3D

 51 50  0  0  0  0  0  0  0  0999 V2000
    4.5470   31.4730   17.3770 C   0  0  0  0  0  0  0  0  0  0  0  0
    5.5460   31.1510   18.4780 C   0  0  0  0  0  0  0  0  0  0  0  0
    6.2620   29.8140   18.2810 C   0  0  0  0  0  0  0  0  0  0  0  0
    6.7260   29.5800   16.8400 C   0  0  0  0  0  0  0  0  0  0  0  0
    8.2170   29.9030   16.6810 C   0  0  0  0  0  0  0  0  0  0  0  0
    8.5840   31.3550   16.5330 C   0  0  0  0  0  0  0  0  0  0  0  0
    9.3800   32.0800   17.3360 C   0  0  0  0  0  0  0  0  0  0  0  0
   10.0510   31.5240   18.5590 C   0  0  0  0  0  0  0  0  0  0  0  0
    9.2540   31.8020   19.7990 C   0  0  0  0  0  0  0  0  0  0  0  0
    9.7250   31.6280   21.0430 C   0  0  0  0  0  0  0  0  0  0  0  0
   11.1120   31.1350   21.3480 C   0  0  0  0  0  0  0  0  0  0  0  0
   11.7620   31.8630   22.5290 C   0  0  0  0  0  0  0  0  0  0  0  0
   10.7720   32.2120   23.6460 C   0  0  0  0  0  0  0  0  0  0  0  0
   11.4530   32.7060   24.9270 C   0  0  0  0  0  0  0  0  0  0  0  0
   10.4630   33.1330   26.0140 C   0  0  0  0  0  0  0  0  0  0  0  0
   10.8240   34.5120   26.5790 C   0  0  0  0  0  0  0  0  0  0  0  0
   12.3190   34.6550   26.8610 C   0  0  0  0  0  0  0  0  0  0  0  0
   12.7480   33.9840   28.1430 C   0  0  0  0  0  0  0  0  0  0  0  0
   12.9590   32.7910   28.2960 O   0  0  0  0  0  0  0  0  0  0  0  0
   12.9020   34.9090   29.1250 O   0  0  0  0  0  0  0  0  0  0  0  0
    3.5918   31.7809   17.8272 H   0  0  0  0  0  0  0  0  0  0  0  0
    4.9390   32.2903   16.7538 H   0  0  0  0  0  0  0  0  0  0  0  0
    4.3879   30.5806   16.7538 H   0  0  0  0  0  0  0  0  0  0  0  0
    6.3018   31.9497   18.5067 H   0  0  0  0  0  0  0  0  0  0  0  0
    4.9791   31.0787   19.4179 H   0  0  0  0  0  0  0  0  0  0  0  0
    7.1428   29.7896   18.9394 H   0  0  0  0  0  0  0  0  0  0  0  0
    5.5404   29.0199   18.5232 H   0  0  0  0  0  0  0  0  0  0  0  0
    6.5564   28.5261   16.5746 H   0  0  0  0  0  0  0  0  0  0  0  0
    6.1520   30.2430   16.1760 H   0  0  0  0  0  0  0  0  0  0  0  0
    8.7379   29.5169   17.5696 H   0  0  0  0  0  0  0  0  0  0  0  0
    8.5142   29.4325   15.7321 H   0  0  0  0  0  0  0  0  0  0  0  0
    8.1515   31.8820   15.6697 H   0  0  0  0  0  0  0  0  0  0  0  0
    9.5494   33.1374   17.0844 H   0  0  0  0  0  0  0  0  0  0  0  0
   10.1619   30.4359   18.4421 H   0  0  0  0  0  0  0  0  0  0  0  0
   11.0326   32.0092   18.6642 H   0  0  0  0  0  0  0  0  0  0  0  0
    8.2240   32.1697   19.6815 H   0  0  0  0  0  0  0  0  0  0  0  0
    9.0589   31.8591   21.8873 H   0  0  0  0  0  0  0  0  0  0  0  0
   11.0581   30.0621   21.5848 H   0  0  0  0  0  0  0  0  0  0  0  0
   11.7322   31.3301   20.4607 H   0  0  0  0  0  0  0  0  0  0  0  0
   12.5473   31.2167   22.9480 H   0  0  0  0  0  0  0  0  0  0  0  0
   12.1664   32.8110   22.1444 H   0  0  0  0  0  0  0  0  0  0  0  0
   10.0987   33.0019   23.2816 H   0  0  0  0  0  0  0  0  0  0  0  0
   10.2293   31.2896   23.9004 H   0  0  0  0  0  0  0  0  0  0  0  0
   12.0792   31.8939   25.3248 H   0  0  0  0  0  0  0  0  0  0  0  0
   12.0452   33.5935   24.6593 H   0  0  0  0  0  0  0  0  0  0  0  0
    9.4520   33.1750   25.5826 H   0  0  0  0  0  0  0  0  0  0  0  0
   10.5043   32.3987   26.8320 H   0  0  0  0  0  0  0  0  0  0  0  0
   10.5272   35.2807   25.8502 H   0  0  0  0  0  0  0  0  0  0  0  0
   10.2905   34.6326   27.5334 H   0  0  0  0  0  0  0  0  0  0  0  0
   12.8770   34.2047   26.0268 H   0  0  0  0  0  0  0  0  0  0  0  0
   12.5308   35.7292   26.9670 H   0  0  0  0  0  0  0  0  0  0  0  0
  1  2  1  0
  2  3  1  0
  3  4  1  0
  4  5  1  0
  5  6  1  0
  6  7  2  0
  7  8  1  0
  8  9  1  0
  9 10  2  0
 10 11  1  0
 11 12  1  0
 12 13  1  0
 13 14  1  0
 14 15  1  0
 15 16  1  0
 16 17  1  0
 17 18  1  0
 18 19  2  0
 18 20  1  0
  1 21  1  0
  1 22  1  0
  1 23  1  0
  2 24  1  0
  2 25  1  0
  3 26  1  0
  3 27  1  0
  4 28  1  0
  4 29  1  0
  5 30  1  0
  5 31  1  0
  6 32  1  0
  7 33  1  0
  8 34  1  0
  8 35  1  0
  9 36  1  0
 10 37  1  0
 11 38  1  0
 11 39  1  0
 12 40  1  0
 12 41  1  0
 13 42  1  0
 13 43  1  0
 14 44  1  0
 14 45  1  0
 15 46  1  0
 15 47  1  0
 16 48  1  0
 16 49  1  0
 17 50  1  0
 17 51  1  0
M  CHG  1  20  -1
M  END
>  <meeko>  (11) 
{"is_sidechain": [false], "free_energy": -6.072, "intermolecular_energy": -11.784, "internal_energy": -1.276}

$$$$
linoleate_Clobe_run03
     RDKit          3D

 51 50  0  0  0  0  0  0  0  0999 V2000
    4.8960   32.1130   18.3060 C   0  0  0  0  0  0  0  0  0  0  0  0
    5.2920   31.1710   19.4320 C   0  0  0  0  0  0  0  0  0  0  0  0
    6.1860   31.8230   20.4890 C   0  0  0  0  0  0  0  0  0  0  0  0
    5.4000   32.4910   21.6210 C   0  0  0  0  0  0  0  0  0  0  0  0
    6.3300   32.9160   22.7630 C   0  0  0  0  0  0  0  0  0  0  0  0
    7.3540   33.9730   22.4470 C   0  0  0  0  0  0  0  0  0  0  0  0
    8.6480   33.9860   22.8040 C   0  0  0  0  0  0  0  0  0  0  0  0
    9.2960   32.8980   23.6120 C   0  0  0  0  0  0  0  0  0  0  0  0
   10.6720   32.5820   23.1060 C   0  0  0  0  0  0  0  0  0  0  0  0
   10.9130   31.8150   22.0320 C   0  0  0  0  0  0  0  0  0  0  0  0
    9.8340   31.1790   21.2030 C   0  0  0  0  0  0  0  0  0  0  0  0
    9.6020   31.8950   19.8670 C   0  0  0  0  0  0  0  0  0  0  0  0
   10.8220   31.8600   18.9400 C   0  0  0  0  0  0  0  0  0  0  0  0
   10.5440   32.4420   17.5500 C   0  0  0  0  0  0  0  0  0  0  0  0
    9.2810   33.3040   17.4950 C   0  0  0  0  0  0  0  0  0  0  0  0
    8.1070   32.5270   16.8870 C   0  0  0  0  0  0  0  0  0  0  0  0
    8.5520   31.2290   16.2150 C   0  0  0  0  0  0  0  0  0  0  0  0
    7.8340   30.0100   16.7420 C   0  0  0  0  0  0  0  0  0  0  0  0
    6.7300   29.6190   16.3950 O   0  0  0  0  0  0  0  0  0  0  0  0
    8.6080   29.3710   17.6560 O   0  0  0  0  0  0  0  0  0  0  0  0
    4.5029   33.0481   18.7314 H   0  0  0  0  0  0  0  0  0  0  0  0
    5.7773   32.3342   17.6860 H   0  0  0  0  0  0  0  0  0  0  0  0
    4.1214   31.6381   17.6860 H   0  0  0  0  0  0  0  0  0  0  0  0
    4.3759   30.8126   19.9242 H   0  0  0  0  0  0  0  0  0  0  0  0
    5.8710   30.3523   18.9797 H   0  0  0  0  0  0  0  0  0  0  0  0
    6.8338   31.0478   20.9243 H   0  0  0  0  0  0  0  0  0  0  0  0
    6.7635   32.6118   19.9847 H   0  0  0  0  0  0  0  0  0  0  0  0
    4.8868   33.3801   21.2259 H   0  0  0  0  0  0  0  0  0  0  0  0
    4.6715   31.7670   22.0149 H   0  0  0  0  0  0  0  0  0  0  0  0
    5.7004   33.2966   23.5807 H   0  0  0  0  0  0  0  0  0  0  0  0
    6.9123   32.0160   23.0100 H   0  0  0  0  0  0  0  0  0  0  0  0
    7.0022   34.8320   21.8568 H   0  0  0  0  0  0  0  0  0  0  0  0
    9.2668   34.8388   22.4880 H   0  0  0  0  0  0  0  0  0  0  0  0
    9.3670   33.2251   24.6598 H   0  0  0  0  0  0  0  0  0  0  0  0
    8.6800   31.9908   23.5255 H   0  0  0  0  0  0  0  0  0  0  0  0
   11.5327   33.0031   23.6463 H   0  0  0  0  0  0  0  0  0  0  0  0
   11.9600   31.6421   21.7422 H   0  0  0  0  0  0  0  0  0  0  0  0
   10.1192   30.1368   20.9969 H   0  0  0  0  0  0  0  0  0  0  0  0
    8.8979   31.2437   21.7770 H   0  0  0  0  0  0  0  0  0  0  0  0
    8.7590   31.4102   19.3529 H   0  0  0  0  0  0  0  0  0  0  0  0
    9.3966   32.9513   20.0951 H   0  0  0  0  0  0  0  0  0  0  0  0
   11.6315   32.4408   19.4062 H   0  0  0  0  0  0  0  0  0  0  0  0
   11.0961   30.8037   18.8020 H   0  0  0  0  0  0  0  0  0  0  0  0
   11.4028   33.0620   17.2532 H   0  0  0  0  0  0  0  0  0  0  0  0
   10.3888   31.5936   16.8672 H   0  0  0  0  0  0  0  0  0  0  0  0
    9.0147   33.6164   18.5156 H   0  0  0  0  0  0  0  0  0  0  0  0
    9.4842   34.1807   16.8624 H   0  0  0  0  0  0  0  0  0  0  0  0
    7.3926   32.2834   17.6872 H   0  0  0  0  0  0  0  0  0  0  0  0
    7.6478   33.1631   16.1159 H   0  0  0  0  0  0  0  0  0  0  0  0
    8.3575   31.3098   15.1353 H   0  0  0  0  0  0  0  0  0  0  0  0
    9.6221   31.0980   16.4334 H   0  0  0  0  0  0  0  0  0  0  0  0
  1  2  1  0
  2  3  1  0
  3  4  1  0
  4  5  1  0
  5  6  1  0
  6  7  2  0
  7  8  1  0
  8  9  1  0
  9 10  2  0
 10 11  1  0
 11 12  1  0
 12 13  1  0
 13 14  1  0
 14 15  1  0
 15 16  1  0
 16 17  1  0
 17 18  1  0
 18 19  2  0
 18 20  1  0
  1 21  1  0
  1 22  1  0
  1 23  1  0
  2 24  1  0
  2 25  1  0
  3 26  1  0
  3 27  1  0
  4 28  1  0
  4 29  1  0
  5 30  1  0
  5 31  1  0
  6 32  1  0
  7 33  1  0
  8 34  1  0
  8 35  1  0
  9 36  1  0
 10 37  1  0
 11 38  1  0
 11 39  1  0
 12 40  1  0
 12 41  1  0
 13 42  1  0
 13 43  1  0
 14 44  1  0
 14 45  1  0
 15 46  1  0
 15 47  1  0
 16 48  1  0
 16 49  1  0
 17 50  1  0
 17 51  1  0
M  CHG  1  20  -1
M  END
>  <meeko>  (12) 
{"is_sidechain": [false], "free_energy": -6.052, "intermolecular_energy": -11.002, "internal_energy": -2.022}

$$$$
linoleate_Clobe_run03
     RDKit          3D

 51 50  0  0  0  0  0  0  0  0999 V2000
    9.9130   35.8620   29.6370 C   0  0  0  0  0  0  0  0  0  0  0  0
   10.4140   34.5580   30.2400 C   0  0  0  0  0  0  0  0  0  0  0  0
   11.7330   34.7040   31.0020 C   0  0  0  0  0  0  0  0  0  0  0  0
   12.7520   35.5930   30.2850 C   0  0  0  0  0  0  0  0  0  0  0  0
   13.3830   34.8610   29.0940 C   0  0  0  0  0  0  0  0  0  0  0  0
   13.1120   35.4310   27.7270 C   0  0  0  0  0  0  0  0  0  0  0  0
   12.5230   34.8160   26.6900 C   0  0  0  0  0  0  0  0  0  0  0  0
   12.0240   33.4000   26.7400 C   0  0  0  0  0  0  0  0  0  0  0  0
   10.5660   33.3180   26.3950 C   0  0  0  0  0  0  0  0  0  0  0  0
   10.0980   32.7750   25.2610 C   0  0  0  0  0  0  0  0  0  0  0  0
   10.9760   32.1790   24.1970 C   0  0  0  0  0  0  0  0  0  0  0  0
   10.5460   32.5640   22.7770 C   0  0  0  0  0  0  0  0  0  0  0  0
   10.6460   31.4060   21.7790 C   0  0  0  0  0  0  0  0  0  0  0  0
   10.0060   31.7180   20.4220 C   0  0  0  0  0  0  0  0  0  0  0  0
    8.4930   31.9320   20.5000 C   0  0  0  0  0  0  0  0  0  0  0  0
    7.8330   31.7240   19.1310 C   0  0  0  0  0  0  0  0  0  0  0  0
    8.7670   31.0440   18.1310 C   0  0  0  0  0  0  0  0  0  0  0  0
    8.1880   29.7800   17.5430 C   0  0  0  0  0  0  0  0  0  0  0  0
    7.6230   28.8910   18.1610 O   0  0  0  0  0  0  0  0  0  0  0  0
    8.3550   29.7730   16.1960 O   0  0  0  0  0  0  0  0  0  0  0  0
    9.6449   36.5599   30.4439 H   0  0  0  0  0  0  0  0  0  0  0  0
   10.7044   36.3065   29.0156 H   0  0  0  0  0  0  0  0  0  0  0  0
    9.0276   35.6623   29.0156 H   0  0  0  0  0  0  0  0  0  0  0  0
    9.6502   34.1801   30.9356 H   0  0  0  0  0  0  0  0  0  0  0  0
   10.5979   33.8655   29.4053 H   0  0  0  0  0  0  0  0  0  0  0  0
   11.5198   35.1427   31.9879 H   0  0  0  0  0  0  0  0  0  0  0  0
   12.1758   33.7002   31.0816 H   0  0  0  0  0  0  0  0  0  0  0  0
   12.2453   36.4993   29.9220 H   0  0  0  0  0  0  0  0  0  0  0  0
   13.5493   35.8540   30.9965 H   0  0  0  0  0  0  0  0  0  0  0  0
   14.4727   34.8589   29.2438 H   0  0  0  0  0  0  0  0  0  0  0  0
   12.9171   33.8646   29.0884 H   0  0  0  0  0  0  0  0  0  0  0  0
   13.4334   36.4696   27.5594 H   0  0  0  0  0  0  0  0  0  0  0  0
   12.3989   35.3789   25.7531 H   0  0  0  0  0  0  0  0  0  0  0  0
   12.5958   32.7940   26.0218 H   0  0  0  0  0  0  0  0  0  0  0  0
   12.1578   33.0230   27.7647 H   0  0  0  0  0  0  0  0  0  0  0  0
    9.8394   33.7264   27.1128 H   0  0  0  0  0  0  0  0  0  0  0  0
    9.0097   32.7655   25.1010 H   0  0  0  0  0  0  0  0  0  0  0  0
   12.0067   32.5283   24.3575 H   0  0  0  0  0  0  0  0  0  0  0  0
   10.8942   31.0851   24.2791 H   0  0  0  0  0  0  0  0  0  0  0  0
    9.5016   32.9078   22.8095 H   0  0  0  0  0  0  0  0  0  0  0  0
   11.2311   33.3522   22.4314 H   0  0  0  0  0  0  0  0  0  0  0  0
   11.7093   31.1743   21.6185 H   0  0  0  0  0  0  0  0  0  0  0  0
   10.0970   30.5560   22.2103 H   0  0  0  0  0  0  0  0  0  0  0  0
   10.4675   32.6323   20.0205 H   0  0  0  0  0  0  0  0  0  0  0  0
   10.1783   30.8467   19.7731 H   0  0  0  0  0  0  0  0  0  0  0  0
    8.0656   31.2157   21.2171 H   0  0  0  0  0  0  0  0  0  0  0  0
    8.3033   32.9656   20.8252 H   0  0  0  0  0  0  0  0  0  0  0  0
    6.9386   31.0971   19.2617 H   0  0  0  0  0  0  0  0  0  0  0  0
    7.5755   32.7150   18.7289 H   0  0  0  0  0  0  0  0  0  0  0  0
    8.9745   31.7479   17.3116 H   0  0  0  0  0  0  0  0  0  0  0  0
    9.6809   30.7633   18.6751 H   0  0  0  0  0  0  0  0  0  0  0  0
  1  2  1  0
  2  3  1  0
  3  4  1  0
  4  5  1  0
  5  6  1  0
  6  7  2  0
  7  8  1  0
  8  9  1  0
  9 10  2  0
 10 11  1  0
 11 12  1  0
 12 13  1  0
 13 14  1  0
 14 15  1  0
 15 16  1  0
 16 17  1  0
 17 18  1  0
 18 19  2  0
 18 20  1  0
  1 21  1  0
  1 22  1  0
  1 23  1  0
  2 24  1  0
  2 25  1  0
  3 26  1  0
  3 27  1  0
  4 28  1  0
  4 29  1  0
  5 30  1  0
  5 31  1  0
  6 32  1  0
  7 33  1  0
  8 34  1  0
  8 35  1  0
  9 36  1  0
 10 37  1  0
 11 38  1  0
 11 39  1  0
 12 40  1  0
 12 41  1  0
 13 42  1  0
 13 43  1  0
 14 44  1  0
 14 45  1  0
 15 46  1  0
 15 47  1  0
 16 48  1  0
 16 49  1  0
 17 50  1  0
 17 51  1  0
M  CHG  1  20  -1
M  END
>  <meeko>  (13) 
{"is_sidechain": [false], "free_energy": -6.032, "intermolecular_energy": -11.678, "internal_energy": -1.31}

$$$$
linoleate_Clobe_run03
     RDKit          3D

 51 50  0  0  0  0  0  0  0  0999 V2000
    5.5280   32.6280   22.2430 C   0  0  0  0  0  0  0  0  0  0  0  0
    6.5960   33.5850   22.7480 C   0  0  0  0  0  0  0  0  0  0  0  0
    7.9990   33.2670   22.2260 C   0  0  0  0  0  0  0  0  0  0  0  0
    7.9980   32.6340   20.8310 C   0  0  0  0  0  0  0  0  0  0  0  0
    8.9850   31.4630   20.7550 C   0  0  0  0  0  0  0  0  0  0  0  0
   10.4500   31.8090   20.7640 C   0  0  0  0  0  0  0  0  0  0  0  0
   11.2930   31.8110   19.7200 C   0  0  0  0  0  0  0  0  0  0  0  0
   10.8820   31.4490   18.3210 C   0  0  0  0  0  0  0  0  0  0  0  0
   10.8160   32.6590   17.4370 C   0  0  0  0  0  0  0  0  0  0  0  0
    9.6700   33.2530   17.0720 C   0  0  0  0  0  0  0  0  0  0  0  0
    8.3110   32.7810   17.5050 C   0  0  0  0  0  0  0  0  0  0  0  0
    7.2090   33.1050   16.4900 C   0  0  0  0  0  0  0  0  0  0  0  0
    5.9450   33.6860   17.1320 C   0  0  0  0  0  0  0  0  0  0  0  0
    4.8680   32.6320   17.4140 C   0  0  0  0  0  0  0  0  0  0  0  0
    5.1290   31.8240   18.6870 C   0  0  0  0  0  0  0  0  0  0  0  0
    5.2150   30.3230   18.3830 C   0  0  0  0  0  0  0  0  0  0  0  0
    6.6260   29.7690   18.5740 C   0  0  0  0  0  0  0  0  0  0  0  0
    7.2840   29.3620   17.2770 C   0  0  0  0  0  0  0  0  0  0  0  0
    6.7330   29.2550   16.1930 O   0  0  0  0  0  0  0  0  0  0  0  0
    8.6110   29.1530   17.4720 O   0  0  0  0  0  0  0  0  0  0  0  0
    5.0139   32.1673   23.0994 H   0  0  0  0  0  0  0  0  0  0  0  0
    4.7993   33.1810   21.6321 H   0  0  0  0  0  0  0  0  0  0  0  0
    5.9981   31.8432   21.6321 H   0  0  0  0  0  0  0  0  0  0  0  0
    6.3290   34.6036   22.4298 H   0  0  0  0  0  0  0  0  0  0  0  0
    6.6283   33.4841   23.8429 H   0  0  0  0  0  0  0  0  0  0  0  0
    8.5763   34.2024   22.1844 H   0  0  0  0  0  0  0  0  0  0  0  0
    8.4447   32.5349   22.9154 H   0  0  0  0  0  0  0  0  0  0  0  0
    6.9864   32.2664   20.6041 H   0  0  0  0  0  0  0  0  0  0  0  0
    8.3050   33.3974   20.1009 H   0  0  0  0  0  0  0  0  0  0  0  0
    8.7922   30.8086   21.6179 H   0  0  0  0  0  0  0  0  0  0  0  0
    8.8050   30.9977   19.7746 H   0  0  0  0  0  0  0  0  0  0  0  0
   10.8781   32.0924   21.7369 H   0  0  0  0  0  0  0  0  0  0  0  0
   12.3413   32.0928   19.8980 H   0  0  0  0  0  0  0  0  0  0  0  0
   11.6147   30.7419   17.9049 H   0  0  0  0  0  0  0  0  0  0  0  0
    9.8803   30.9963   18.3618 H   0  0  0  0  0  0  0  0  0  0  0  0
   11.7610   33.0833   17.0670 H   0  0  0  0  0  0  0  0  0  0  0  0
    9.7286   34.1359   16.4185 H   0  0  0  0  0  0  0  0  0  0  0  0
    8.3477   31.6906   17.6455 H   0  0  0  0  0  0  0  0  0  0  0  0
    8.0628   33.3089   18.4376 H   0  0  0  0  0  0  0  0  0  0  0  0
    7.6025   33.8369   15.7693 H   0  0  0  0  0  0  0  0  0  0  0  0
    6.9234   32.1592   16.0064 H   0  0  0  0  0  0  0  0  0  0  0  0
    6.2242   34.1629   18.0831 H   0  0  0  0  0  0  0  0  0  0  0  0
    5.5178   34.4048   16.4173 H   0  0  0  0  0  0  0  0  0  0  0  0
    3.8990   33.1422   17.5171 H   0  0  0  0  0  0  0  0  0  0  0  0
    4.8770   31.9243   16.5719 H   0  0  0  0  0  0  0  0  0  0  0  0
    6.0783   32.1547   19.1336 H   0  0  0  0  0  0  0  0  0  0  0  0
    4.2940   31.9912   19.3832 H   0  0  0  0  0  0  0  0  0  0  0  0
    4.5308   29.7865   19.0569 H   0  0  0  0  0  0  0  0  0  0  0  0
    4.9383   30.1785   17.3282 H   0  0  0  0  0  0  0  0  0  0  0  0
    7.2441   30.5431   19.0522 H   0  0  0  0  0  0  0  0  0  0  0  0
    6.5420   28.8659   19.1963 H   0  0  0  0  0  0  0  0  0  0  0  0
  1  2  1  0
  2  3  1  0
  3  4  1  0
  4  5  1  0
  5  6  1  0
  6  7  2  0
  7  8  1  0
  8  9  1  0
  9 10  2  0
 10 11  1  0
 11 12  1  0
 12 13  1  0
 13 14  1  0
 14 15  1  0
 15 16  1  0
 16 17  1  0
 17 18  1  0
 18 19  2  0
 18 20  1  0
  1 21  1  0
  1 22  1  0
  1 23  1  0
  2 24  1  0
  2 25  1  0
  3 26  1  0
  3 27  1  0
  4 28  1  0
  4 29  1  0
  5 30  1  0
  5 31  1  0
  6 32  1  0
  7 33  1  0
  8 34  1  0
  8 35  1  0
  9 36  1  0
 10 37  1  0
 11 38  1  0
 11 39  1  0
 12 40  1  0
 12 41  1  0
 13 42  1  0
 13 43  1  0
 14 44  1  0
 14 45  1  0
 15 46  1  0
 15 47  1  0
 16 48  1  0
 16 49  1  0
 17 50  1  0
 17 51  1  0
M  CHG  1  20  -1
M  END
>  <meeko>  (14) 
{"is_sidechain": [false], "free_energy": -6.004, "intermolecular_energy": -10.842, "internal_energy": -2.094}

$$$$
linoleate_Clobe_run03
     RDKit          3D

 51 50  0  0  0  0  0  0  0  0999 V2000
    8.1740   29.4140   17.3650 C   0  0  0  0  0  0  0  0  0  0  0  0
    7.0760   30.1610   16.6250 C   0  0  0  0  0  0  0  0  0  0  0  0
    5.6690   29.8440   17.1370 C   0  0  0  0  0  0  0  0  0  0  0  0
    4.8540   31.0920   17.4850 C   0  0  0  0  0  0  0  0  0  0  0  0
    5.6660   32.0580   18.3560 C   0  0  0  0  0  0  0  0  0  0  0  0
    5.7830   31.7170   19.8180 C   0  0  0  0  0  0  0  0  0  0  0  0
    6.8580   31.8710   20.6070 C   0  0  0  0  0  0  0  0  0  0  0  0
    8.1670   32.4290   20.1260 C   0  0  0  0  0  0  0  0  0  0  0  0
    9.2870   31.4510   20.3200 C   0  0  0  0  0  0  0  0  0  0  0  0
   10.1280   31.4790   21.3660 C   0  0  0  0  0  0  0  0  0  0  0  0
   10.0490   32.4930   22.4720 C   0  0  0  0  0  0  0  0  0  0  0  0
   10.9450   32.1490   23.6680 C   0  0  0  0  0  0  0  0  0  0  0  0
   10.5110   32.8360   24.9670 C   0  0  0  0  0  0  0  0  0  0  0  0
   11.6880   33.3480   25.8050 C   0  0  0  0  0  0  0  0  0  0  0  0
   11.2770   34.3690   26.8680 C   0  0  0  0  0  0  0  0  0  0  0  0
   12.4090   34.6050   27.8750 C   0  0  0  0  0  0  0  0  0  0  0  0
   12.8200   33.3250   28.6010 C   0  0  0  0  0  0  0  0  0  0  0  0
   13.4510   33.5830   29.9480 C   0  0  0  0  0  0  0  0  0  0  0  0
   12.8990   34.0810   30.9180 O   0  0  0  0  0  0  0  0  0  0  0  0
   14.7380   33.1500   29.9520 O   0  0  0  0  0  0  0  0  0  0  0  0
    8.0214   29.5178   18.4494 H   0  0  0  0  0  0  0  0  0  0  0  0
    8.1423   28.3493   17.0905 H   0  0  0  0  0  0  0  0  0  0  0  0
    9.1527   29.8344   17.0905 H   0  0  0  0  0  0  0  0  0  0  0  0
    7.2525   31.2408   16.7382 H   0  0  0  0  0  0  0  0  0  0  0  0
    7.1177   29.8390   15.5740 H   0  0  0  0  0  0  0  0  0  0  0  0
    5.1324   29.2831   16.3577 H   0  0  0  0  0  0  0  0  0  0  0  0
    5.7837   29.2619   18.0633 H   0  0  0  0  0  0  0  0  0  0  0  0
    4.5655   31.6033   16.5548 H   0  0  0  0  0  0  0  0  0  0  0  0
    3.9620   30.7803   18.0482 H   0  0  0  0  0  0  0  0  0  0  0  0
    6.6842   32.1039   17.9422 H   0  0  0  0  0  0  0  0  0  0  0  0
    5.1133   33.0085   18.3249 H   0  0  0  0  0  0  0  0  0  0  0  0
    4.8858   31.2937   20.2933 H   0  0  0  0  0  0  0  0  0  0  0  0
    6.7759   31.5725   21.6625 H   0  0  0  0  0  0  0  0  0  0  0  0
    8.0821   32.6671   19.0554 H   0  0  0  0  0  0  0  0  0  0  0  0
    8.3928   33.3322   20.7119 H   0  0  0  0  0  0  0  0  0  0  0  0
    9.4275   30.6661   19.5622 H   0  0  0  0  0  0  0  0  0  0  0  0
   10.9195   30.7167   21.4162 H   0  0  0  0  0  0  0  0  0  0  0  0
   10.3573   33.4708   22.0733 H   0  0  0  0  0  0  0  0  0  0  0  0
    9.0100   32.5047   22.8330 H   0  0  0  0  0  0  0  0  0  0  0  0
   10.9181   31.0603   23.8228 H   0  0  0  0  0  0  0  0  0  0  0  0
   11.9572   32.5088   23.4313 H   0  0  0  0  0  0  0  0  0  0  0  0
    9.8666   33.6901   24.7117 H   0  0  0  0  0  0  0  0  0  0  0  0
    9.9829   32.0844   25.5722 H   0  0  0  0  0  0  0  0  0  0  0  0
   12.1572   32.4899   26.3084 H   0  0  0  0  0  0  0  0  0  0  0  0
   12.3805   33.8554   25.1173 H   0  0  0  0  0  0  0  0  0  0  0  0
   11.0305   35.3210   26.3752 H   0  0  0  0  0  0  0  0  0  0  0  0
   10.4040   33.9763   27.4100 H   0  0  0  0  0  0  0  0  0  0  0  0
   13.2827   35.0021   27.3375 H   0  0  0  0  0  0  0  0  0  0  0  0
   12.0427   35.3158   28.6304 H   0  0  0  0  0  0  0  0  0  0  0  0
   11.9246   32.7030   28.7475 H   0  0  0  0  0  0  0  0  0  0  0  0
   13.5739   32.8225   27.9772 H   0  0  0  0  0  0  0  0  0  0  0  0
  1  2  1  0
  2  3  1  0
  3  4  1  0
  4  5  1  0
  5  6  1  0
  6  7  2  0
  7  8  1  0
  8  9  1  0
  9 10  2  0
 10 11  1  0
 11 12  1  0
 12 13  1  0
 13 14  1  0
 14 15  1  0
 15 16  1  0
 16 17  1  0
 17 18  1  0
 18 19  2  0
 18 20  1  0
  1 21  1  0
  1 22  1  0
  1 23  1  0
  2 24  1  0
  2 25  1  0
  3 26  1  0
  3 27  1  0
  4 28  1  0
  4 29  1  0
  5 30  1  0
  5 31  1  0
  6 32  1  0
  7 33  1  0
  8 34  1  0
  8 35  1  0
  9 36  1  0
 10 37  1  0
 11 38  1  0
 11 39  1  0
 12 40  1  0
 12 41  1  0
 13 42  1  0
 13 43  1  0
 14 44  1  0
 14 45  1  0
 15 46  1  0
 15 47  1  0
 16 48  1  0
 16 49  1  0
 17 50  1  0
 17 51  1  0
M  CHG  1  20  -1
M  END
>  <meeko>  (15) 
{"is_sidechain": [false], "free_energy": -5.993, "intermolecular_energy": -11.79, "internal_energy": -1.126}

$$$$
linoleate_Clobe_run03
     RDKit          3D

 51 50  0  0  0  0  0  0  0  0999 V2000
   12.8930   33.9450   28.5770 C   0  0  0  0  0  0  0  0  0  0  0  0
   12.4990   35.2540   27.9080 C   0  0  0  0  0  0  0  0  0  0  0  0
   11.3970   35.0960   26.8580 C   0  0  0  0  0  0  0  0  0  0  0  0
   10.5830   33.8090   27.0220 C   0  0  0  0  0  0  0  0  0  0  0  0
   10.5240   33.0210   25.7070 C   0  0  0  0  0  0  0  0  0  0  0  0
   11.8400   32.6840   25.0580 C   0  0  0  0  0  0  0  0  0  0  0  0
   12.0410   32.2310   23.8110 C   0  0  0  0  0  0  0  0  0  0  0  0
   10.9310   31.9790   22.8310 C   0  0  0  0  0  0  0  0  0  0  0  0
   11.4590   31.4980   21.5120 C   0  0  0  0  0  0  0  0  0  0  0  0
   10.7240   31.4390   20.3910 C   0  0  0  0  0  0  0  0  0  0  0  0
    9.2810   31.8500   20.3180 C   0  0  0  0  0  0  0  0  0  0  0  0
    8.8080   32.1340   18.8880 C   0  0  0  0  0  0  0  0  0  0  0  0
    9.2180   31.0490   17.8870 C   0  0  0  0  0  0  0  0  0  0  0  0
    8.1960   30.8420   16.7640 C   0  0  0  0  0  0  0  0  0  0  0  0
    7.4780   29.4910   16.8380 C   0  0  0  0  0  0  0  0  0  0  0  0
    5.9590   29.6770   16.9300 C   0  0  0  0  0  0  0  0  0  0  0  0
    5.5710   31.0300   17.5240 C   0  0  0  0  0  0  0  0  0  0  0  0
    5.2680   30.9630   19.0020 C   0  0  0  0  0  0  0  0  0  0  0  0
    5.1330   29.9460   19.6640 O   0  0  0  0  0  0  0  0  0  0  0  0
    5.1910   32.2150   19.5200 O   0  0  0  0  0  0  0  0  0  0  0  0
   12.8565   34.0662   29.6697 H   0  0  0  0  0  0  0  0  0  0  0  0
   12.1936   33.1525   28.2724 H   0  0  0  0  0  0  0  0  0  0  0  0
   13.9137   33.6702   28.2724 H   0  0  0  0  0  0  0  0  0  0  0  0
   12.1437   35.9482   28.6838 H   0  0  0  0  0  0  0  0  0  0  0  0
   13.3908   35.6318   27.3864 H   0  0  0  0  0  0  0  0  0  0  0  0
   10.7133   35.9540   26.9378 H   0  0  0  0  0  0  0  0  0  0  0  0
   11.8885   35.0473   25.8751 H   0  0  0  0  0  0  0  0  0  0  0  0
   11.0526   33.1830   27.7951 H   0  0  0  0  0  0  0  0  0  0  0  0
    9.5573   34.0793   27.3135 H   0  0  0  0  0  0  0  0  0  0  0  0
   10.0007   32.0748   25.9092 H   0  0  0  0  0  0  0  0  0  0  0  0
   10.0141   33.6867   24.9951 H   0  0  0  0  0  0  0  0  0  0  0  0
   12.7388   32.8251   25.6762 H   0  0  0  0  0  0  0  0  0  0  0  0
   13.0742   32.0336   23.4892 H   0  0  0  0  0  0  0  0  0  0  0  0
   10.2554   31.2160   23.2450 H   0  0  0  0  0  0  0  0  0  0  0  0
   10.3974   32.9263   22.6638 H   0  0  0  0  0  0  0  0  0  0  0  0
   12.5093   31.1750   21.4608 H   0  0  0  0  0  0  0  0  0  0  0  0
   11.2052   31.0688   19.4737 H   0  0  0  0  0  0  0  0  0  0  0  0
    8.6649   31.0404   20.7362 H   0  0  0  0  0  0  0  0  0  0  0  0
    9.1769   32.7842   20.8894 H   0  0  0  0  0  0  0  0  0  0  0  0
    7.7106   32.2088   18.8917 H   0  0  0  0  0  0  0  0  0  0  0  0
    9.2864   33.0710   18.5668 H   0  0  0  0  0  0  0  0  0  0  0  0
   10.1792   31.3358   17.4356 H   0  0  0  0  0  0  0  0  0  0  0  0
    9.2869   30.1024   18.4430 H   0  0  0  0  0  0  0  0  0  0  0  0
    7.4428   31.6413   16.8260 H   0  0  0  0  0  0  0  0  0  0  0  0
    8.7485   30.8651   15.8131 H   0  0  0  0  0  0  0  0  0  0  0  0
    7.7145   28.9086   15.9353 H   0  0  0  0  0  0  0  0  0  0  0  0
    7.8203   28.9626   17.7400 H   0  0  0  0  0  0  0  0  0  0  0  0
    5.5321   29.5999   15.9191 H   0  0  0  0  0  0  0  0  0  0  0  0
    5.5658   28.8943   17.5954 H   0  0  0  0  0  0  0  0  0  0  0  0
    6.4034   31.7322   17.3687 H   0  0  0  0  0  0  0  0  0  0  0  0
    4.6532   31.3604   17.0156 H   0  0  0  0  0  0  0  0  0  0  0  0
  1  2  1  0
  2  3  1  0
  3  4  1  0
  4  5  1  0
  5  6  1  0
  6  7  2  0
  7  8  1  0
  8  9  1  0
  9 10  2  0
 10 11  1  0
 11 12  1  0
 12 13  1  0
 13 14  1  0
 14 15  1  0
 15 16  1  0
 16 17  1  0
 17 18  1  0
 18 19  2  0
 18 20  1  0
  1 21  1  0
  1 22  1  0
  1 23  1  0
  2 24  1  0
  2 25  1  0
  3 26  1  0
  3 27  1  0
  4 28  1  0
  4 29  1  0
  5 30  1  0
  5 31  1  0
  6 32  1  0
  7 33  1  0
  8 34  1  0
  8 35  1  0
  9 36  1  0
 10 37  1  0
 11 38  1  0
 11 39  1  0
 12 40  1  0
 12 41  1  0
 13 42  1  0
 13 43  1  0
 14 44  1  0
 14 45  1  0
 15 46  1  0
 15 47  1  0
 16 48  1  0
 16 49  1  0
 17 50  1  0
 17 51  1  0
M  CHG  1  20  -1
M  END
>  <meeko>  (16) 
{"is_sidechain": [false], "free_energy": -5.975, "intermolecular_energy": -11.756, "internal_energy": -1.127}

$$$$
linoleate_Clobe_run03
     RDKit          3D

 51 50  0  0  0  0  0  0  0  0999 V2000
   14.2390   33.1620   29.8970 C   0  0  0  0  0  0  0  0  0  0  0  0
   13.7700   34.4000   30.6460 C   0  0  0  0  0  0  0  0  0  0  0  0
   12.2560   34.4430   30.8680 C   0  0  0  0  0  0  0  0  0  0  0  0
   11.5850   35.6640   30.2330 C   0  0  0  0  0  0  0  0  0  0  0  0
   11.0410   35.3320   28.8380 C   0  0  0  0  0  0  0  0  0  0  0  0
   11.9870   35.5130   27.6810 C   0  0  0  0  0  0  0  0  0  0  0  0
   12.3360   34.5970   26.7630 C   0  0  0  0  0  0  0  0  0  0  0  0
   11.8120   33.1890   26.7550 C   0  0  0  0  0  0  0  0  0  0  0  0
   10.5850   33.0640   25.9010 C   0  0  0  0  0  0  0  0  0  0  0  0
   10.6000   32.6150   24.6370 C   0  0  0  0  0  0  0  0  0  0  0  0
   11.8470   32.1820   23.9200 C   0  0  0  0  0  0  0  0  0  0  0  0
   11.6230   31.9170   22.4270 C   0  0  0  0  0  0  0  0  0  0  0  0
   10.1890   32.2040   21.9700 C   0  0  0  0  0  0  0  0  0  0  0  0
    9.7920   31.4410   20.7010 C   0  0  0  0  0  0  0  0  0  0  0  0
   10.6710   31.7750   19.4930 C   0  0  0  0  0  0  0  0  0  0  0  0
    9.8180   32.1520   18.2760 C   0  0  0  0  0  0  0  0  0  0  0  0
    8.5170   31.3530   18.2060 C   0  0  0  0  0  0  0  0  0  0  0  0
    8.6020   30.1600   17.2850 C   0  0  0  0  0  0  0  0  0  0  0  0
    8.9070   29.0220   17.6070 O   0  0  0  0  0  0  0  0  0  0  0  0
    8.2560   30.5190   16.0220 O   0  0  0  0  0  0  0  0  0  0  0  0
   14.5330   32.3860   30.6191 H   0  0  0  0  0  0  0  0  0  0  0  0
   13.4217   32.7842   29.2651 H   0  0  0  0  0  0  0  0  0  0  0  0
   15.1015   33.4205   29.2651 H   0  0  0  0  0  0  0  0  0  0  0  0
   14.2665   34.4220   31.6273 H   0  0  0  0  0  0  0  0  0  0  0  0
   14.0308   35.2708   30.0266 H   0  0  0  0  0  0  0  0  0  0  0  0
   11.8133   33.5353   30.4321 H   0  0  0  0  0  0  0  0  0  0  0  0
   12.0876   34.5064   31.9532 H   0  0  0  0  0  0  0  0  0  0  0  0
   10.7534   35.9911   30.8744 H   0  0  0  0  0  0  0  0  0  0  0  0
   12.3347   36.4629   30.1346 H   0  0  0  0  0  0  0  0  0  0  0  0
   10.7230   34.2790   28.8465 H   0  0  0  0  0  0  0  0  0  0  0  0
   10.2313   36.0561   28.6644 H   0  0  0  0  0  0  0  0  0  0  0  0
   12.4440   36.5080   27.5756 H   0  0  0  0  0  0  0  0  0  0  0  0
   13.0435   34.8935   25.9746 H   0  0  0  0  0  0  0  0  0  0  0  0
   12.5912   32.5198   26.3613 H   0  0  0  0  0  0  0  0  0  0  0  0
   11.5444   32.9144   27.7860 H   0  0  0  0  0  0  0  0  0  0  0  0
    9.6181   33.3572   26.3360 H   0  0  0  0  0  0  0  0  0  0  0  0
    9.6446   32.5608   24.0946 H   0  0  0  0  0  0  0  0  0  0  0  0
   12.6036   32.9735   24.0251 H   0  0  0  0  0  0  0  0  0  0  0  0
   12.1740   31.2354   24.3749 H   0  0  0  0  0  0  0  0  0  0  0  0
   12.3077   32.5577   21.8519 H   0  0  0  0  0  0  0  0  0  0  0  0
   11.8128   30.8475   22.2534 H   0  0  0  0  0  0  0  0  0  0  0  0
    9.5010   31.9176   22.7791 H   0  0  0  0  0  0  0  0  0  0  0  0
   10.1306   33.2773   21.7361 H   0  0  0  0  0  0  0  0  0  0  0  0
    9.8714   30.3626   20.9029 H   0  0  0  0  0  0  0  0  0  0  0  0
    8.7643   31.7412   20.4487 H   0  0  0  0  0  0  0  0  0  0  0  0
   11.3260   32.6210   19.7484 H   0  0  0  0  0  0  0  0  0  0  0  0
   11.2677   30.8864   19.2392 H   0  0  0  0  0  0  0  0  0  0  0  0
    9.5723   33.2226   18.3349 H   0  0  0  0  0  0  0  0  0  0  0  0
   10.4021   31.9214   17.3728 H   0  0  0  0  0  0  0  0  0  0  0  0
    8.2700   30.9974   19.2172 H   0  0  0  0  0  0  0  0  0  0  0  0
    7.7427   32.0227   17.8036 H   0  0  0  0  0  0  0  0  0  0  0  0
  1  2  1  0
  2  3  1  0
  3  4  1  0
  4  5  1  0
  5  6  1  0
  6  7  2  0
  7  8  1  0
  8  9  1  0
  9 10  2  0
 10 11  1  0
 11 12  1  0
 12 13  1  0
 13 14  1  0
 14 15  1  0
 15 16  1  0
 16 17  1  0
 17 18  1  0
 18 19  2  0
 18 20  1  0
  1 21  1  0
  1 22  1  0
  1 23  1  0
  2 24  1  0
  2 25  1  0
  3 26  1  0
  3 27  1  0
  4 28  1  0
  4 29  1  0
  5 30  1  0
  5 31  1  0
  6 32  1  0
  7 33  1  0
  8 34  1  0
  8 35  1  0
  9 36  1  0
 10 37  1  0
 11 38  1  0
 11 39  1  0
 12 40  1  0
 12 41  1  0
 13 42  1  0
 13 43  1  0
 14 44  1  0
 14 45  1  0
 15 46  1  0
 15 47  1  0
 16 48  1  0
 16 49  1  0
 17 50  1  0
 17 51  1  0
M  CHG  1  20  -1
M  END
>  <meeko>  (17) 
{"is_sidechain": [false], "free_energy": -5.964, "intermolecular_energy": -11.54, "internal_energy": -1.324}

$$$$
linoleate_Clobe_run03
     RDKit          3D

 51 50  0  0  0  0  0  0  0  0999 V2000
    5.7070   32.0620   21.0160 C   0  0  0  0  0  0  0  0  0  0  0  0
    5.3580   31.5890   19.6140 C   0  0  0  0  0  0  0  0  0  0  0  0
    6.5500   31.5920   18.6530 C   0  0  0  0  0  0  0  0  0  0  0  0
    7.1170   30.1950   18.3850 C   0  0  0  0  0  0  0  0  0  0  0  0
    8.5820   30.2690   17.9380 C   0  0  0  0  0  0  0  0  0  0  0  0
    9.2000   31.6390   17.8650 C   0  0  0  0  0  0  0  0  0  0  0  0
   10.0140   32.2140   18.7650 C   0  0  0  0  0  0  0  0  0  0  0  0
   10.4480   31.5450   20.0380 C   0  0  0  0  0  0  0  0  0  0  0  0
    9.5740   31.9390   21.1920 C   0  0  0  0  0  0  0  0  0  0  0  0
   10.0380   32.2020   22.4230 C   0  0  0  0  0  0  0  0  0  0  0  0
   11.4920   32.1350   22.7970 C   0  0  0  0  0  0  0  0  0  0  0  0
   11.7270   32.2030   24.3110 C   0  0  0  0  0  0  0  0  0  0  0  0
   10.5390   32.7870   25.0830 C   0  0  0  0  0  0  0  0  0  0  0  0
   10.9550   33.7710   26.1820 C   0  0  0  0  0  0  0  0  0  0  0  0
   12.1610   33.2950   26.9970 C   0  0  0  0  0  0  0  0  0  0  0  0
   12.1440   33.8940   28.4090 C   0  0  0  0  0  0  0  0  0  0  0  0
   13.3700   33.4920   29.2270 C   0  0  0  0  0  0  0  0  0  0  0  0
   13.3450   34.0300   30.6370 C   0  0  0  0  0  0  0  0  0  0  0  0
   12.3790   34.0470   31.3840 O   0  0  0  0  0  0  0  0  0  0  0  0
   14.5780   34.4790   30.9880 O   0  0  0  0  0  0  0  0  0  0  0  0
    5.2233   31.4065   21.7551 H   0  0  0  0  0  0  0  0  0  0  0  0
    6.7978   32.0276   21.1536 H   0  0  0  0  0  0  0  0  0  0  0  0
    5.3524   33.0941   21.1536 H   0  0  0  0  0  0  0  0  0  0  0  0
    4.9669   30.5630   19.6802 H   0  0  0  0  0  0  0  0  0  0  0  0
    4.6159   32.2937   19.2106 H   0  0  0  0  0  0  0  0  0  0  0  0
    6.2255   32.0264   17.6959 H   0  0  0  0  0  0  0  0  0  0  0  0
    7.3485   32.1817   19.1270 H   0  0  0  0  0  0  0  0  0  0  0  0
    7.0526   29.5984   19.3069 H   0  0  0  0  0  0  0  0  0  0  0  0
    6.5298   29.7286   17.5802 H   0  0  0  0  0  0  0  0  0  0  0  0
    9.1766   29.6729   18.6459 H   0  0  0  0  0  0  0  0  0  0  0  0
    8.5868   29.8952   16.9035 H   0  0  0  0  0  0  0  0  0  0  0  0
    8.9577   32.2369   16.9740 H   0  0  0  0  0  0  0  0  0  0  0  0
   10.3829   33.2296   18.5589 H   0  0  0  0  0  0  0  0  0  0  0  0
   10.3942   30.4544   19.9049 H   0  0  0  0  0  0  0  0  0  0  0  0
   11.4775   31.8621   20.2608 H   0  0  0  0  0  0  0  0  0  0  0  0
    8.4905   32.0167   21.0188 H   0  0  0  0  0  0  0  0  0  0  0  0
    9.3138   32.4823   23.2021 H   0  0  0  0  0  0  0  0  0  0  0  0
   11.9072   31.1886   22.4203 H   0  0  0  0  0  0  0  0  0  0  0  0
   11.9869   33.0090   22.3485 H   0  0  0  0  0  0  0  0  0  0  0  0
   11.9172   31.1847   24.6809 H   0  0  0  0  0  0  0  0  0  0  0  0
   12.5845   32.8715   24.4780 H   0  0  0  0  0  0  0  0  0  0  0  0
    9.8854   33.3136   24.3720 H   0  0  0  0  0  0  0  0  0  0  0  0
   10.0255   31.9476   25.5746 H   0  0  0  0  0  0  0  0  0  0  0  0
   11.2090   34.7325   25.7118 H   0  0  0  0  0  0  0  0  0  0  0  0
   10.1071   33.8604   26.8770 H   0  0  0  0  0  0  0  0  0  0  0  0
   12.1337   32.1979   27.0718 H   0  0  0  0  0  0  0  0  0  0  0  0
   13.0788   33.6250   26.4884 H   0  0  0  0  0  0  0  0  0  0  0  0
   12.1180   34.9906   28.3272 H   0  0  0  0  0  0  0  0  0  0  0  0
   11.2539   33.5072   28.9267 H   0  0  0  0  0  0  0  0  0  0  0  0
   13.4156   32.3939   29.2723 H   0  0  0  0  0  0  0  0  0  0  0  0
   14.2515   33.9213   28.7283 H   0  0  0  0  0  0  0  0  0  0  0  0
  1  2  1  0
  2  3  1  0
  3  4  1  0
  4  5  1  0
  5  6  1  0
  6  7  2  0
  7  8  1  0
  8  9  1  0
  9 10  2  0
 10 11  1  0
 11 12  1  0
 12 13  1  0
 13 14  1  0
 14 15  1  0
 15 16  1  0
 16 17  1  0
 17 18  1  0
 18 19  2  0
 18 20  1  0
  1 21  1  0
  1 22  1  0
  1 23  1  0
  2 24  1  0
  2 25  1  0
  3 26  1  0
  3 27  1  0
  4 28  1  0
  4 29  1  0
  5 30  1  0
  5 31  1  0
  6 32  1  0
  7 33  1  0
  8 34  1  0
  8 35  1  0
  9 36  1  0
 10 37  1  0
 11 38  1  0
 11 39  1  0
 12 40  1  0
 12 41  1  0
 13 42  1  0
 13 43  1  0
 14 44  1  0
 14 45  1  0
 15 46  1  0
 15 47  1  0
 16 48  1  0
 16 49  1  0
 17 50  1  0
 17 51  1  0
M  CHG  1  20  -1
M  END
>  <meeko>  (18) 
{"is_sidechain": [false], "free_energy": -5.918, "intermolecular_energy": -11.613, "internal_energy": -1.167}

$$$$
linoleate_Clobe_run03
     RDKit          3D

 51 50  0  0  0  0  0  0  0  0999 V2000
    7.0920   29.7130   16.7070 C   0  0  0  0  0  0  0  0  0  0  0  0
    5.7310   30.1030   17.2620 C   0  0  0  0  0  0  0  0  0  0  0  0
    5.7340   31.4410   18.0050 C   0  0  0  0  0  0  0  0  0  0  0  0
    6.3480   31.3560   19.4050 C   0  0  0  0  0  0  0  0  0  0  0  0
    7.5630   32.2840   19.5330 C   0  0  0  0  0  0  0  0  0  0  0  0
    8.9180   31.6580   19.3370 C   0  0  0  0  0  0  0  0  0  0  0  0
    9.8840   31.5040   20.2560 C   0  0  0  0  0  0  0  0  0  0  0  0
    9.7520   31.9550   21.6820 C   0  0  0  0  0  0  0  0  0  0  0  0
   11.0680   31.8980   22.4010 C   0  0  0  0  0  0  0  0  0  0  0  0
   11.2220   32.2060   23.6980 C   0  0  0  0  0  0  0  0  0  0  0  0
   10.0950   32.6440   24.5910 C   0  0  0  0  0  0  0  0  0  0  0  0
   10.5750   33.1840   25.9430 C   0  0  0  0  0  0  0  0  0  0  0  0
   12.0890   33.4120   26.0020 C   0  0  0  0  0  0  0  0  0  0  0  0
   12.4840   34.6430   26.8250 C   0  0  0  0  0  0  0  0  0  0  0  0
   11.4250   35.0530   27.8510 C   0  0  0  0  0  0  0  0  0  0  0  0
   12.0750   35.5850   29.1350 C   0  0  0  0  0  0  0  0  0  0  0  0
   12.2530   34.4960   30.1920 C   0  0  0  0  0  0  0  0  0  0  0  0
   13.6870   34.0500   30.3480 C   0  0  0  0  0  0  0  0  0  0  0  0
   14.5190   34.5460   31.0920 O   0  0  0  0  0  0  0  0  0  0  0  0
   13.9300   32.9760   29.5540 O   0  0  0  0  0  0  0  0  0  0  0  0
    7.7840   29.5147   17.5387 H   0  0  0  0  0  0  0  0  0  0  0  0
    6.9908   28.8077   16.0904 H   0  0  0  0  0  0  0  0  0  0  0  0
    7.4856   30.5345   16.0904 H   0  0  0  0  0  0  0  0  0  0  0  0
    5.0205   30.1714   16.4250 H   0  0  0  0  0  0  0  0  0  0  0  0
    5.4455   29.3297   17.9903 H   0  0  0  0  0  0  0  0  0  0  0  0
    6.3117   32.1670   17.4141 H   0  0  0  0  0  0  0  0  0  0  0  0
    4.6847   31.7473   18.1279 H   0  0  0  0  0  0  0  0  0  0  0  0
    5.5915   31.6502   20.1474 H   0  0  0  0  0  0  0  0  0  0  0  0
    6.6789   30.3215   19.5790 H   0  0  0  0  0  0  0  0  0  0  0  0
    7.4532   33.0816   18.7835 H   0  0  0  0  0  0  0  0  0  0  0  0
    7.5533   32.6290   20.5775 H   0  0  0  0  0  0  0  0  0  0  0  0
    9.1416   31.2847   18.3267 H   0  0  0  0  0  0  0  0  0  0  0  0
   10.8231   31.0213   19.9478 H   0  0  0  0  0  0  0  0  0  0  0  0
    9.3814   32.9906   21.6965 H   0  0  0  0  0  0  0  0  0  0  0  0
    9.0497   31.2805   22.1937 H   0  0  0  0  0  0  0  0  0  0  0  0
   11.9567   31.5861   21.8327 H   0  0  0  0  0  0  0  0  0  0  0  0
   12.2301   32.1339   24.1323 H   0  0  0  0  0  0  0  0  0  0  0  0
    9.5295   33.4361   24.0783 H   0  0  0  0  0  0  0  0  0  0  0  0
    9.4733   31.7593   24.7929 H   0  0  0  0  0  0  0  0  0  0  0  0
   10.0700   34.1421   26.1354 H   0  0  0  0  0  0  0  0  0  0  0  0
   10.3300   32.4263   26.7018 H   0  0  0  0  0  0  0  0  0  0  0  0
   12.5585   32.5252   26.4526 H   0  0  0  0  0  0  0  0  0  0  0  0
   12.4334   33.5842   24.9716 H   0  0  0  0  0  0  0  0  0  0  0  0
   13.4193   34.4199   27.3593 H   0  0  0  0  0  0  0  0  0  0  0  0
   12.5969   35.4814   26.1219 H   0  0  0  0  0  0  0  0  0  0  0  0
   10.7904   35.8399   27.4172 H   0  0  0  0  0  0  0  0  0  0  0  0
   10.8242   34.1673   28.1052 H   0  0  0  0  0  0  0  0  0  0  0  0
   13.0627   35.9998   28.8853 H   0  0  0  0  0  0  0  0  0  0  0  0
   11.4093   36.3538   29.5543 H   0  0  0  0  0  0  0  0  0  0  0  0
   11.9005   34.8854   31.1585 H   0  0  0  0  0  0  0  0  0  0  0  0
   11.6718   33.6219   29.8631 H   0  0  0  0  0  0  0  0  0  0  0  0
  1  2  1  0
  2  3  1  0
  3  4  1  0
  4  5  1  0
  5  6  1  0
  6  7  2  0
  7  8  1  0
  8  9  1  0
  9 10  2  0
 10 11  1  0
 11 12  1  0
 12 13  1  0
 13 14  1  0
 14 15  1  0
 15 16  1  0
 16 17  1  0
 17 18  1  0
 18 19  2  0
 18 20  1  0
  1 21  1  0
  1 22  1  0
  1 23  1  0
  2 24  1  0
  2 25  1  0
  3 26  1  0
  3 27  1  0
  4 28  1  0
  4 29  1  0
  5 30  1  0
  5 31  1  0
  6 32  1  0
  7 33  1  0
  8 34  1  0
  8 35  1  0
  9 36  1  0
 10 37  1  0
 11 38  1  0
 11 39  1  0
 12 40  1  0
 12 41  1  0
 13 42  1  0
 13 43  1  0
 14 44  1  0
 14 45  1  0
 15 46  1  0
 15 47  1  0
 16 48  1  0
 16 49  1  0
 17 50  1  0
 17 51  1  0
M  CHG  1  20  -1
M  END
>  <meeko>  (19) 
{"is_sidechain": [false], "free_energy": -5.877, "intermolecular_energy": -11.677, "internal_energy": -1.029}

$$$$
linoleate_Clobe_run03
     RDKit          3D

 51 50  0  0  0  0  0  0  0  0999 V2000
   14.5500   35.3410   29.9460 C   0  0  0  0  0  0  0  0  0  0  0  0
   13.2690   36.0050   29.4670 C   0  0  0  0  0  0  0  0  0  0  0  0
   13.2460   36.2730   27.9600 C   0  0  0  0  0  0  0  0  0  0  0  0
   12.8560   35.0450   27.1320 C   0  0  0  0  0  0  0  0  0  0  0  0
   11.3350   34.9600   26.9520 C   0  0  0  0  0  0  0  0  0  0  0  0
   10.6890   33.6360   27.2580 C   0  0  0  0  0  0  0  0  0  0  0  0
   10.1700   32.7610   26.3820 C   0  0  0  0  0  0  0  0  0  0  0  0
   10.1530   32.9860   24.8960 C   0  0  0  0  0  0  0  0  0  0  0  0
   11.2650   32.2450   24.2150 C   0  0  0  0  0  0  0  0  0  0  0  0
   11.2460   31.9000   22.9190 C   0  0  0  0  0  0  0  0  0  0  0  0
   10.1100   32.2170   21.9880 C   0  0  0  0  0  0  0  0  0  0  0  0
   10.2090   31.4820   20.6460 C   0  0  0  0  0  0  0  0  0  0  0  0
    8.8970   31.4870   19.8540 C   0  0  0  0  0  0  0  0  0  0  0  0
    9.0320   32.1160   18.4630 C   0  0  0  0  0  0  0  0  0  0  0  0
    8.9750   31.0920   17.3260 C   0  0  0  0  0  0  0  0  0  0  0  0
    8.1450   29.8670   17.7270 C   0  0  0  0  0  0  0  0  0  0  0  0
    6.8730   29.7260   16.8920 C   0  0  0  0  0  0  0  0  0  0  0  0
    5.6140   29.9990   17.6790 C   0  0  0  0  0  0  0  0  0  0  0  0
    4.6070   30.5490   17.2590 O   0  0  0  0  0  0  0  0  0  0  0  0
    5.7370   29.5150   18.9410 O   0  0  0  0  0  0  0  0  0  0  0  0
   14.5688   35.3312   31.0458 H   0  0  0  0  0  0  0  0  0  0  0  0
   14.5907   34.3083   29.5694 H   0  0  0  0  0  0  0  0  0  0  0  0
   15.4173   35.9031   29.5694 H   0  0  0  0  0  0  0  0  0  0  0  0
   12.4223   35.3487   29.7168 H   0  0  0  0  0  0  0  0  0  0  0  0
   13.2032   36.9811   29.9700 H   0  0  0  0  0  0  0  0  0  0  0  0
   12.5199   37.0745   27.7590 H   0  0  0  0  0  0  0  0  0  0  0  0
   14.2672   36.5547   27.6637 H   0  0  0  0  0  0  0  0  0  0  0  0
   13.3315   35.1133   26.1424 H   0  0  0  0  0  0  0  0  0  0  0  0
   13.1956   34.1436   27.6631 H   0  0  0  0  0  0  0  0  0  0  0  0
   10.8792   35.7131   27.6116 H   0  0  0  0  0  0  0  0  0  0  0  0
   11.1625   35.1232   25.8779 H   0  0  0  0  0  0  0  0  0  0  0  0
   10.6360   33.3530   28.3196 H   0  0  0  0  0  0  0  0  0  0  0  0
    9.7339   31.8297   26.7726 H   0  0  0  0  0  0  0  0  0  0  0  0
    9.1911   32.6367   24.4926 H   0  0  0  0  0  0  0  0  0  0  0  0
   10.2891   34.0613   24.7082 H   0  0  0  0  0  0  0  0  0  0  0  0
   12.1463   31.9687   24.8124 H   0  0  0  0  0  0  0  0  0  0  0  0
   12.1111   31.3540   22.5147 H   0  0  0  0  0  0  0  0  0  0  0  0
    9.1669   31.9295   22.4758 H   0  0  0  0  0  0  0  0  0  0  0  0
   10.1516   33.2954   21.7751 H   0  0  0  0  0  0  0  0  0  0  0  0
   10.9858   31.9686   20.0379 H   0  0  0  0  0  0  0  0  0  0  0  0
   10.4524   30.4322   20.8666 H   0  0  0  0  0  0  0  0  0  0  0  0
    8.5563   30.4478   19.7359 H   0  0  0  0  0  0  0  0  0  0  0  0
    8.1771   32.0970   20.4193 H   0  0  0  0  0  0  0  0  0  0  0  0
    8.2126   32.8367   18.3249 H   0  0  0  0  0  0  0  0  0  0  0  0
   10.0201   32.5974   18.4181 H   0  0  0  0  0  0  0  0  0  0  0  0
    8.5184   31.5616   16.4423 H   0  0  0  0  0  0  0  0  0  0  0  0
   10.0000   30.7613   17.1022 H   0  0  0  0  0  0  0  0  0  0  0  0
    8.7588   28.9644   17.5906 H   0  0  0  0  0  0  0  0  0  0  0  0
    7.8441   29.9952   18.7772 H   0  0  0  0  0  0  0  0  0  0  0  0
    6.9234   30.4374   16.0546 H   0  0  0  0  0  0  0  0  0  0  0  0
    6.8228   28.6835   16.5447 H   0  0  0  0  0  0  0  0  0  0  0  0
  1  2  1  0
  2  3  1  0
  3  4  1  0
  4  5  1  0
  5  6  1  0
  6  7  2  0
  7  8  1  0
  8  9  1  0
  9 10  2  0
 10 11  1  0
 11 12  1  0
 12 13  1  0
 13 14  1  0
 14 15  1  0
 15 16  1  0
 16 17  1  0
 17 18  1  0
 18 19  2  0
 18 20  1  0
  1 21  1  0
  1 22  1  0
  1 23  1  0
  2 24  1  0
  2 25  1  0
  3 26  1  0
  3 27  1  0
  4 28  1  0
  4 29  1  0
  5 30  1  0
  5 31  1  0
  6 32  1  0
  7 33  1  0
  8 34  1  0
  8 35  1  0
  9 36  1  0
 10 37  1  0
 11 38  1  0
 11 39  1  0
 12 40  1  0
 12 41  1  0
 13 42  1  0
 13 43  1  0
 14 44  1  0
 14 45  1  0
 15 46  1  0
 15 47  1  0
 16 48  1  0
 16 49  1  0
 17 50  1  0
 17 51  1  0
M  CHG  1  20  -1
M  END
>  <meeko>  (20) 
{"is_sidechain": [false], "free_energy": -5.869, "intermolecular_energy": -11.807, "internal_energy": -0.883}

$$$$
