linoleate_Clobe_run02
     RDKit          3D

 51 50  0  0  0  0  0  0  0  0999 V2000
    4.6640   34.8510   15.9120 C   0  0  0  0  0  0  0  0  0  0  0  0
    5.3830   33.8280   16.7780 C   0  0  0  0  0  0  0  0  0  0  0  0
    4.4750   32.7000   17.2730 C   0  0  0  0  0  0  0  0  0  0  0  0
    4.8750   32.1580   18.6480 C   0  0  0  0  0  0  0  0  0  0  0  0
    6.0940   31.2320   18.5440 C   0  0  0  0  0  0  0  0  0  0  0  0
    5.9980   30.0920   17.5650 C   0  0  0  0  0  0  0  0  0  0  0  0
    6.9750   29.6030   16.7860 C   0  0  0  0  0  0  0  0  0  0  0  0
    8.3750   30.1470   16.7720 C   0  0  0  0  0  0  0  0  0  0  0  0
    8.5400   31.2160   15.7320 C   0  0  0  0  0  0  0  0  0  0  0  0
    8.8960   32.4790   16.0120 C   0  0  0  0  0  0  0  0  0  0  0  0
    9.1750   32.9790   17.4010 C   0  0  0  0  0  0  0  0  0  0  0  0
   10.6240   32.7460   17.8440 C   0  0  0  0  0  0  0  0  0  0  0  0
   10.7440   31.8310   19.0670 C   0  0  0  0  0  0  0  0  0  0  0  0
    9.4040   31.5680   19.7620 C   0  0  0  0  0  0  0  0  0  0  0  0
    9.4140   31.9160   21.2520 C   0  0  0  0  0  0  0  0  0  0  0  0
   10.8470   32.1040   21.7660 C   0  0  0  0  0  0  0  0  0  0  0  0
   10.9340   32.0250   23.2900 C   0  0  0  0  0  0  0  0  0  0  0  0
   12.3420   32.1820   23.8120 C   0  0  0  0  0  0  0  0  0  0  0  0
   13.3670   31.8670   23.2260 O   0  0  0  0  0  0  0  0  0  0  0  0
   12.3230   32.7630   25.0390 O   0  0  0  0  0  0  0  0  0  0  0  0
    4.1511   35.5807   16.5558 H   0  0  0  0  0  0  0  0  0  0  0  0
    5.3952   35.3725   15.2769 H   0  0  0  0  0  0  0  0  0  0  0  0
    3.9256   34.3396   15.2769 H   0  0  0  0  0  0  0  0  0  0  0  0
    6.1988   33.3846   16.1882 H   0  0  0  0  0  0  0  0  0  0  0  0
    5.7520   34.3598   17.6674 H   0  0  0  0  0  0  0  0  0  0  0  0
    3.4455   33.0825   17.3347 H   0  0  0  0  0  0  0  0  0  0  0  0
    4.5674   31.8702   16.5569 H   0  0  0  0  0  0  0  0  0  0  0  0
    5.1205   33.0021   19.3093 H   0  0  0  0  0  0  0  0  0  0  0  0
    4.0316   31.5806   19.0546 H   0  0  0  0  0  0  0  0  0  0  0  0
    6.9569   31.8490   18.2530 H   0  0  0  0  0  0  0  0  0  0  0  0
    6.1800   30.7567   19.5323 H   0  0  0  0  0  0  0  0  0  0  0  0
    5.0156   29.6048   17.4786 H   0  0  0  0  0  0  0  0  0  0  0  0
    6.7380   28.7586   16.1221 H   0  0  0  0  0  0  0  0  0  0  0  0
    8.6031   30.5720   17.7606 H   0  0  0  0  0  0  0  0  0  0  0  0
    9.0628   29.3229   16.5315 H   0  0  0  0  0  0  0  0  0  0  0  0
    8.3588   30.9491   14.6804 H   0  0  0  0  0  0  0  0  0  0  0  0
    8.9889   33.1889   15.1769 H   0  0  0  0  0  0  0  0  0  0  0  0
    8.9686   34.0590   17.4324 H   0  0  0  0  0  0  0  0  0  0  0  0
    8.5270   32.4159   18.0888 H   0  0  0  0  0  0  0  0  0  0  0  0
   11.1748   32.2875   17.0095 H   0  0  0  0  0  0  0  0  0  0  0  0
   11.0395   33.7244   18.1270 H   0  0  0  0  0  0  0  0  0  0  0  0
   11.1637   30.8675   18.7422 H   0  0  0  0  0  0  0  0  0  0  0  0
   11.3926   32.3423   19.7936 H   0  0  0  0  0  0  0  0  0  0  0  0
    8.6300   32.1734   19.2677 H   0  0  0  0  0  0  0  0  0  0  0  0
    9.2025   30.4896   19.6816 H   0  0  0  0  0  0  0  0  0  0  0  0
    8.8516   32.8486   21.4068 H   0  0  0  0  0  0  0  0  0  0  0  0
    8.9497   31.0876   21.8072 H   0  0  0  0  0  0  0  0  0  0  0  0
   11.4832   31.3172   21.3345 H   0  0  0  0  0  0  0  0  0  0  0  0
   11.1837   33.1061   21.4622 H   0  0  0  0  0  0  0  0  0  0  0  0
   10.3108   32.8240   23.7181 H   0  0  0  0  0  0  0  0  0  0  0  0
   10.5837   31.0255   23.5871 H   0  0  0  0  0  0  0  0  0  0  0  0
  1  2  1  0
  2  3  1  0
  3  4  1  0
  4  5  1  0
  5  6  1  0
  6  7  2  0
  7  8  1  0
  8  9  1  0
  9 10  2  0
 10 11  1  0
 11 12  1  0
 12 13  1  0
 13 14  1  0
 14 15  1  0
 15 16  1  0
 16 17  1  0
 17 18  1  0
 18 19  2  0
 18 20  1  0
  1 21  1  0
  1 22  1  0
  1 23  1  0
  2 24  1  0
  2 25  1  0
  3 26  1  0
  3 27  1  0
  4 28  1  0
  4 29  1  0
  5 30  1  0
  5 31  1  0
  6 32  1  0
  7 33  1  0
  8 34  1  0
  8 35  1  0
  9 36  1  0
 10 37  1  0
 11 38  1  0
 11 39  1  0
 12 40  1  0
 12 41  1  0
 13 42  1  0
 13 43  1  0
 14 44  1  0
 14 45  1  0
 15 46  1  0
 15 47  1  0
 16 48  1  0
 16 49  1  0
 17 50  1  0
 17 51  1  0
M  CHG  1  20  -1
M  END
>  <meeko>  (1) 
{"is_sidechain": [false], "free_energy": -6.873, "intermolecular_energy": -12.499, "internal_energy": -1.98}

$$$$
linoleate_Clobe_run02
     RDKit          3D

 51 50  0  0  0  0  0  0  0  0999 V2000
    7.6180   33.4000   17.2230 C   0  0  0  0  0  0  0  0  0  0  0  0
    8.9590   33.0000   16.6280 C   0  0  0  0  0  0  0  0  0  0  0  0
    9.7880   32.0950   17.5430 C   0  0  0  0  0  0  0  0  0  0  0  0
    8.9450   31.0650   18.3020 C   0  0  0  0  0  0  0  0  0  0  0  0
    8.7890   29.7730   17.4900 C   0  0  0  0  0  0  0  0  0  0  0  0
    7.6240   29.7060   16.5400 C   0  0  0  0  0  0  0  0  0  0  0  0
    6.3180   29.7610   16.8460 C   0  0  0  0  0  0  0  0  0  0  0  0
    5.8010   29.9020   18.2490 C   0  0  0  0  0  0  0  0  0  0  0  0
    4.9680   31.1400   18.4070 C   0  0  0  0  0  0  0  0  0  0  0  0
    5.1300   32.0250   19.4020 C   0  0  0  0  0  0  0  0  0  0  0  0
    6.1660   31.8860   20.4810 C   0  0  0  0  0  0  0  0  0  0  0  0
    5.6560   32.3090   21.8630 C   0  0  0  0  0  0  0  0  0  0  0  0
    6.5200   33.3870   22.5250 C   0  0  0  0  0  0  0  0  0  0  0  0
    8.0010   33.2970   22.1410 C   0  0  0  0  0  0  0  0  0  0  0  0
    8.9430   33.3190   23.3470 C   0  0  0  0  0  0  0  0  0  0  0  0
   10.2590   32.5970   23.0340 C   0  0  0  0  0  0  0  0  0  0  0  0
   10.2690   31.9820   21.6350 C   0  0  0  0  0  0  0  0  0  0  0  0
   11.6270   31.4680   21.2220 C   0  0  0  0  0  0  0  0  0  0  0  0
   11.9260   31.0240   20.1240 O   0  0  0  0  0  0  0  0  0  0  0  0
   12.5060   31.5930   22.2490 O   0  0  0  0  0  0  0  0  0  0  0  0
    7.6835   33.3805   18.3209 H   0  0  0  0  0  0  0  0  0  0  0  0
    7.3569   34.4151   16.8893 H   0  0  0  0  0  0  0  0  0  0  0  0
    6.8435   32.6938   16.8893 H   0  0  0  0  0  0  0  0  0  0  0  0
    8.7756   32.4662   15.6839 H   0  0  0  0  0  0  0  0  0  0  0  0
    9.5356   33.9249   16.4794 H   0  0  0  0  0  0  0  0  0  0  0  0
   10.5251   31.5579   16.9281 H   0  0  0  0  0  0  0  0  0  0  0  0
   10.2665   32.7412   18.2937 H   0  0  0  0  0  0  0  0  0  0  0  0
    9.4375   30.8316   19.2575 H   0  0  0  0  0  0  0  0  0  0  0  0
    7.9459   31.4911   18.4760 H   0  0  0  0  0  0  0  0  0  0  0  0
    9.7076   29.6374   16.9003 H   0  0  0  0  0  0  0  0  0  0  0  0
    8.5993   28.9859   18.2346 H   0  0  0  0  0  0  0  0  0  0  0  0
    7.8705   29.5999   15.4733 H   0  0  0  0  0  0  0  0  0  0  0  0
    5.5878   29.6995   16.0256 H   0  0  0  0  0  0  0  0  0  0  0  0
    5.1854   29.0236   18.4929 H   0  0  0  0  0  0  0  0  0  0  0  0
    6.6630   29.9774   18.9282 H   0  0  0  0  0  0  0  0  0  0  0  0
    4.1796   31.3329   17.6646 H   0  0  0  0  0  0  0  0  0  0  0  0
    4.4667   32.9021   19.4294 H   0  0  0  0  0  0  0  0  0  0  0  0
    6.4801   30.8330   20.5311 H   0  0  0  0  0  0  0  0  0  0  0  0
    7.0011   32.5533   20.2215 H   0  0  0  0  0  0  0  0  0  0  0  0
    4.6337   32.7000   21.7531 H   0  0  0  0  0  0  0  0  0  0  0  0
    5.6930   31.4199   22.5096 H   0  0  0  0  0  0  0  0  0  0  0  0
    6.1401   34.3738   22.2220 H   0  0  0  0  0  0  0  0  0  0  0  0
    6.4554   33.2341   23.6124 H   0  0  0  0  0  0  0  0  0  0  0  0
    8.1620   32.3589   21.5896 H   0  0  0  0  0  0  0  0  0  0  0  0
    8.2331   34.1824   21.5309 H   0  0  0  0  0  0  0  0  0  0  0  0
    9.1611   34.3638   23.6132 H   0  0  0  0  0  0  0  0  0  0  0  0
    8.4511   32.8010   24.1835 H   0  0  0  0  0  0  0  0  0  0  0  0
   11.0846   33.3202   23.1077 H   0  0  0  0  0  0  0  0  0  0  0  0
   10.3730   31.7788   23.7603 H   0  0  0  0  0  0  0  0  0  0  0  0
    9.5572   31.1436   21.6164 H   0  0  0  0  0  0  0  0  0  0  0  0
    9.9902   32.7759   20.9265 H   0  0  0  0  0  0  0  0  0  0  0  0
  1  2  1  0
  2  3  1  0
  3  4  1  0
  4  5  1  0
  5  6  1  0
  6  7  2  0
  7  8  1  0
  8  9  1  0
  9 10  2  0
 10 11  1  0
 11 12  1  0
 12 13  1  0
 13 14  1  0
 14 15  1  0
 15 16  1  0
 16 17  1  0
 17 18  1  0
 18 19  2  0
 18 20  1  0
  1 21  1  0
  1 22  1  0
  1 23  1  0
  2 24  1  0
  2 25  1  0
  3 26  1  0
  3 27  1  0
  4 28  1  0
  4 29  1  0
  5 30  1  0
  5 31  1  0
  6 32  1  0
  7 33  1  0
  8 34  1  0
  8 35  1  0
  9 36  1  0
 10 37  1  0
 11 38  1  0
 11 39  1  0
 12 40  1  0
 12 41  1  0
 13 42  1  0
 13 43  1  0
 14 44  1  0
 14 45  1  0
 15 46  1  0
 15 47  1  0
 16 48  1  0
 16 49  1  0
 17 50  1  0
 17 51  1  0
M  CHG  1  20  -1
M  END
>  <meeko>  (2) 
{"is_sidechain": [false], "free_energy": -6.487, "intermolecular_energy": -11.718, "internal_energy": -2.057}

$$$$
linoleate_Clobe_run02
     RDKit          3D

 51 50  0  0  0  0  0  0  0  0999 V2000
    6.5860   33.2600   22.5950 C   0  0  0  0  0  0  0  0  0  0  0  0
    5.5380   32.5120   21.7860 C   0  0  0  0  0  0  0  0  0  0  0  0
    6.0920   31.8720   20.5110 C   0  0  0  0  0  0  0  0  0  0  0  0
    5.0360   31.1080   19.7070 C   0  0  0  0  0  0  0  0  0  0  0  0
    5.3610   31.1300   18.2080 C   0  0  0  0  0  0  0  0  0  0  0  0
    5.1070   32.4210   17.4770 C   0  0  0  0  0  0  0  0  0  0  0  0
    6.0050   33.3640   17.1530 C   0  0  0  0  0  0  0  0  0  0  0  0
    7.4660   33.2670   17.4880 C   0  0  0  0  0  0  0  0  0  0  0  0
    8.2970   33.0260   16.2630 C   0  0  0  0  0  0  0  0  0  0  0  0
    8.7610   31.8190   15.9030 C   0  0  0  0  0  0  0  0  0  0  0  0
    8.5030   30.5610   16.6820 C   0  0  0  0  0  0  0  0  0  0  0  0
    9.1430   30.5740   18.0750 C   0  0  0  0  0  0  0  0  0  0  0  0
   10.5230   31.2400   18.1020 C   0  0  0  0  0  0  0  0  0  0  0  0
   10.8380   31.9280   19.4350 C   0  0  0  0  0  0  0  0  0  0  0  0
    9.7340   31.7560   20.4810 C   0  0  0  0  0  0  0  0  0  0  0  0
   10.2120   32.2080   21.8670 C   0  0  0  0  0  0  0  0  0  0  0  0
   11.4230   31.4130   22.3540 C   0  0  0  0  0  0  0  0  0  0  0  0
   12.0870   32.0260   23.5640 C   0  0  0  0  0  0  0  0  0  0  0  0
   11.5190   32.4570   24.5560 O   0  0  0  0  0  0  0  0  0  0  0  0
   13.4360   32.0090   23.4150 O   0  0  0  0  0  0  0  0  0  0  0  0
    6.3896   33.1198   23.6682 H   0  0  0  0  0  0  0  0  0  0  0  0
    7.5850   32.8696   22.3510 H   0  0  0  0  0  0  0  0  0  0  0  0
    6.5415   34.3317   22.3510 H   0  0  0  0  0  0  0  0  0  0  0  0
    5.1124   31.7181   22.4173 H   0  0  0  0  0  0  0  0  0  0  0  0
    4.7826   33.2490   21.4757 H   0  0  0  0  0  0  0  0  0  0  0  0
    6.5080   32.6666   19.8741 H   0  0  0  0  0  0  0  0  0  0  0  0
    6.8566   31.1434   20.8186 H   0  0  0  0  0  0  0  0  0  0  0  0
    5.0066   30.0643   20.0530 H   0  0  0  0  0  0  0  0  0  0  0  0
    4.0610   31.5936   19.8604 H   0  0  0  0  0  0  0  0  0  0  0  0
    6.4282   30.8883   18.0954 H   0  0  0  0  0  0  0  0  0  0  0  0
    4.6728   30.4020   17.7537 H   0  0  0  0  0  0  0  0  0  0  0  0
    4.0672   32.6133   17.1740 H   0  0  0  0  0  0  0  0  0  0  0  0
    5.6525   34.2554   16.6134 H   0  0  0  0  0  0  0  0  0  0  0  0
    7.7878   34.2077   17.9586 H   0  0  0  0  0  0  0  0  0  0  0  0
    7.6070   32.4177   18.1727 H   0  0  0  0  0  0  0  0  0  0  0  0
    8.5400   33.8872   15.6233 H   0  0  0  0  0  0  0  0  0  0  0  0
    9.3641   31.7471   14.9859 H   0  0  0  0  0  0  0  0  0  0  0  0
    7.4161   30.4374   16.7973 H   0  0  0  0  0  0  0  0  0  0  0  0
    8.9550   29.7296   16.1212 H   0  0  0  0  0  0  0  0  0  0  0  0
    8.4780   31.1208   18.7596 H   0  0  0  0  0  0  0  0  0  0  0  0
    9.2810   29.5261   18.3799 H   0  0  0  0  0  0  0  0  0  0  0  0
   11.2862   30.4695   17.9178 H   0  0  0  0  0  0  0  0  0  0  0  0
   10.5243   32.0187   17.3251 H   0  0  0  0  0  0  0  0  0  0  0  0
   11.7690   31.5014   19.8366 H   0  0  0  0  0  0  0  0  0  0  0  0
   10.9294   33.0052   19.2320 H   0  0  0  0  0  0  0  0  0  0  0  0
    8.8629   32.3598   20.1867 H   0  0  0  0  0  0  0  0  0  0  0  0
    9.4654   30.6906   20.5340 H   0  0  0  0  0  0  0  0  0  0  0  0
   10.4853   33.2723   21.8166 H   0  0  0  0  0  0  0  0  0  0  0  0
    9.3902   32.0358   22.5776 H   0  0  0  0  0  0  0  0  0  0  0  0
   11.0929   30.3963   22.6134 H   0  0  0  0  0  0  0  0  0  0  0  0
   12.1628   31.4110   21.5399 H   0  0  0  0  0  0  0  0  0  0  0  0
  1  2  1  0
  2  3  1  0
  3  4  1  0
  4  5  1  0
  5  6  1  0
  6  7  2  0
  7  8  1  0
  8  9  1  0
  9 10  2  0
 10 11  1  0
 11 12  1  0
 12 13  1  0
 13 14  1  0
 14 15  1  0
 15 16  1  0
 16 17  1  0
 17 18  1  0
 18 19  2  0
 18 20  1  0
  1 21  1  0
  1 22  1  0
  1 23  1  0
  2 24  1  0
  2 25  1  0
  3 26  1  0
  3 27  1  0
  4 28  1  0
  4 29  1  0
  5 30  1  0
  5 31  1  0
  6 32  1  0
  7 33  1  0
  8 34  1  0
  8 35  1  0
  9 36  1  0
 10 37  1  0
 11 38  1  0
 11 39  1  0
 12 40  1  0
 12 41  1  0
 13 42  1  0
 13 43  1  0
 14 44  1  0
 14 45  1  0
 15 46  1  0
 15 47  1  0
 16 48  1  0
 16 49  1  0
 17 50  1  0
 17 51  1  0
M  CHG  1  20  -1
M  END
>  <meeko>  (3) 
{"is_sidechain": [false], "free_energy": -6.388, "intermolecular_energy": -11.814, "internal_energy": -1.782}

$$$$
linoleate_Clobe_run02
     RDKit          3D

 51 50  0  0  0  0  0  0  0  0999 V2000
   11.5140   34.6520   26.6340 C   0  0  0  0  0  0  0  0  0  0  0  0
   11.6860   33.2770   26.0060 C   0  0  0  0  0  0  0  0  0  0  0  0
   10.4980   32.8470   25.1430 C   0  0  0  0  0  0  0  0  0  0  0  0
   10.9140   32.1820   23.8270 C   0  0  0  0  0  0  0  0  0  0  0  0
   10.0240   32.6470   22.6680 C   0  0  0  0  0  0  0  0  0  0  0  0
    9.9040   31.7180   21.4900 C   0  0  0  0  0  0  0  0  0  0  0  0
    8.9290   31.6930   20.5670 C   0  0  0  0  0  0  0  0  0  0  0  0
    7.7570   32.6330   20.5750 C   0  0  0  0  0  0  0  0  0  0  0  0
    6.4670   31.9000   20.7970 C   0  0  0  0  0  0  0  0  0  0  0  0
    5.5410   31.7150   19.8430 C   0  0  0  0  0  0  0  0  0  0  0  0
    5.6840   32.2170   18.4340 C   0  0  0  0  0  0  0  0  0  0  0  0
    4.9150   31.3710   17.4130 C   0  0  0  0  0  0  0  0  0  0  0  0
    5.4020   29.9200   17.3380 C   0  0  0  0  0  0  0  0  0  0  0  0
    6.7500   29.7690   16.6240 C   0  0  0  0  0  0  0  0  0  0  0  0
    7.8960   29.3900   17.5660 C   0  0  0  0  0  0  0  0  0  0  0  0
    8.9930   30.4610   17.5610 C   0  0  0  0  0  0  0  0  0  0  0  0
    8.7720   31.5180   16.4790 C   0  0  0  0  0  0  0  0  0  0  0  0
    9.6110   32.7560   16.6790 C   0  0  0  0  0  0  0  0  0  0  0  0
   10.7160   32.9620   16.2010 O   0  0  0  0  0  0  0  0  0  0  0  0
    8.9480   33.6500   17.4560 O   0  0  0  0  0  0  0  0  0  0  0  0
   11.5257   34.5586   27.7300 H   0  0  0  0  0  0  0  0  0  0  0  0
   12.3372   35.3073   26.3130 H   0  0  0  0  0  0  0  0  0  0  0  0
   10.5548   35.0843   26.3130 H   0  0  0  0  0  0  0  0  0  0  0  0
   12.5870   33.2926   25.3751 H   0  0  0  0  0  0  0  0  0  0  0  0
   11.7661   32.5528   26.8301 H   0  0  0  0  0  0  0  0  0  0  0  0
    9.8893   32.1334   25.7176 H   0  0  0  0  0  0  0  0  0  0  0  0
    9.9366   33.7571   24.8849 H   0  0  0  0  0  0  0  0  0  0  0  0
   11.9588   32.4456   23.6058 H   0  0  0  0  0  0  0  0  0  0  0  0
   10.8049   31.0929   23.9361 H   0  0  0  0  0  0  0  0  0  0  0  0
    9.0125   32.8083   23.0691 H   0  0  0  0  0  0  0  0  0  0  0  0
   10.5129   33.5501   22.2739 H   0  0  0  0  0  0  0  0  0  0  0  0
   10.7063   30.9749   21.3716 H   0  0  0  0  0  0  0  0  0  0  0  0
    8.9917   30.9451   19.7629 H   0  0  0  0  0  0  0  0  0  0  0  0
    7.8939   33.3683   21.3816 H   0  0  0  0  0  0  0  0  0  0  0  0
    7.7071   33.1314   19.5957 H   0  0  0  0  0  0  0  0  0  0  0  0
    6.2687   31.4908   21.7986 H   0  0  0  0  0  0  0  0  0  0  0  0
    4.6259   31.1649   20.1076 H   0  0  0  0  0  0  0  0  0  0  0  0
    5.3052   33.2488   18.3899 H   0  0  0  0  0  0  0  0  0  0  0  0
    6.7506   32.1581   18.1716 H   0  0  0  0  0  0  0  0  0  0  0  0
    3.8511   31.3681   17.6926 H   0  0  0  0  0  0  0  0  0  0  0  0
    5.0826   31.8223   16.4239 H   0  0  0  0  0  0  0  0  0  0  0  0
    5.5042   29.5326   18.3624 H   0  0  0  0  0  0  0  0  0  0  0  0
    4.6591   29.3568   16.7541 H   0  0  0  0  0  0  0  0  0  0  0  0
    6.6536   28.9849   15.8585 H   0  0  0  0  0  0  0  0  0  0  0  0
    6.9981   30.7474   16.1867 H   0  0  0  0  0  0  0  0  0  0  0  0
    7.5014   29.2849   18.5874 H   0  0  0  0  0  0  0  0  0  0  0  0
    8.3328   28.4415   17.2202 H   0  0  0  0  0  0  0  0  0  0  0  0
    9.0060   30.9577   18.5424 H   0  0  0  0  0  0  0  0  0  0  0  0
    9.9492   29.9601   17.3495 H   0  0  0  0  0  0  0  0  0  0  0  0
    9.0249   31.0779   15.5031 H   0  0  0  0  0  0  0  0  0  0  0  0
    7.7171   31.8253   16.5320 H   0  0  0  0  0  0  0  0  0  0  0  0
  1  2  1  0
  2  3  1  0
  3  4  1  0
  4  5  1  0
  5  6  1  0
  6  7  2  0
  7  8  1  0
  8  9  1  0
  9 10  2  0
 10 11  1  0
 11 12  1  0
 12 13  1  0
 13 14  1  0
 14 15  1  0
 15 16  1  0
 16 17  1  0
 17 18  1  0
 18 19  2  0
 18 20  1  0
  1 21  1  0
  1 22  1  0
  1 23  1  0
  2 24  1  0
  2 25  1  0
  3 26  1  0
  3 27  1  0
  4 28  1  0
  4 29  1  0
  5 30  1  0
  5 31  1  0
  6 32  1  0
  7 33  1  0
  8 34  1  0
  8 35  1  0
  9 36  1  0
 10 37  1  0
 11 38  1  0
 11 39  1  0
 12 40  1  0
 12 41  1  0
 13 42  1  0
 13 43  1  0
 14 44  1  0
 14 45  1  0
 15 46  1  0
 15 47  1  0
 16 48  1  0
 16 49  1  0
 17 50  1  0
 17 51  1  0
M  CHG  1  20  -1
M  END
>  <meeko>  (4) 
{"is_sidechain": [false], "free_energy": -6.357, "intermolecular_energy": -11.867, "internal_energy": -1.673}

$$$$
linoleate_Clobe_run02
     RDKit          3D

 51 50  0  0  0  0  0  0  0  0999 V2000
    7.5350   33.6210   22.4190 C   0  0  0  0  0  0  0  0  0  0  0  0
    6.1270   33.2160   22.8280 C   0  0  0  0  0  0  0  0  0  0  0  0
    5.3530   32.4950   21.7220 C   0  0  0  0  0  0  0  0  0  0  0  0
    6.2570   31.9050   20.6350 C   0  0  0  0  0  0  0  0  0  0  0  0
    5.5940   31.9980   19.2550 C   0  0  0  0  0  0  0  0  0  0  0  0
    5.1920   30.7010   18.6070 C   0  0  0  0  0  0  0  0  0  0  0  0
    6.0010   29.7340   18.1470 C   0  0  0  0  0  0  0  0  0  0  0  0
    7.5000   29.8070   18.2120 C   0  0  0  0  0  0  0  0  0  0  0  0
    8.1080   29.8680   16.8420 C   0  0  0  0  0  0  0  0  0  0  0  0
    8.2980   31.0080   16.1610 C   0  0  0  0  0  0  0  0  0  0  0  0
    7.9260   32.3650   16.6870 C   0  0  0  0  0  0  0  0  0  0  0  0
    9.1060   33.3440   16.7130 C   0  0  0  0  0  0  0  0  0  0  0  0
   10.4690   32.6480   16.8030 C   0  0  0  0  0  0  0  0  0  0  0  0
   11.1310   32.7880   18.1780 C   0  0  0  0  0  0  0  0  0  0  0  0
   10.9740   31.5440   19.0560 C   0  0  0  0  0  0  0  0  0  0  0  0
    9.9770   31.7940   20.1940 C   0  0  0  0  0  0  0  0  0  0  0  0
   10.3690   31.0710   21.4820 C   0  0  0  0  0  0  0  0  0  0  0  0
   11.3400   31.8560   22.3310 C   0  0  0  0  0  0  0  0  0  0  0  0
   11.0510   32.7270   23.1370 O   0  0  0  0  0  0  0  0  0  0  0  0
   12.6100   31.4370   22.0970 O   0  0  0  0  0  0  0  0  0  0  0  0
    8.1424   33.7957   23.3193 H   0  0  0  0  0  0  0  0  0  0  0  0
    7.9887   32.8169   21.8210 H   0  0  0  0  0  0  0  0  0  0  0  0
    7.4921   34.5432   21.8210 H   0  0  0  0  0  0  0  0  0  0  0  0
    6.1963   32.5462   23.6978 H   0  0  0  0  0  0  0  0  0  0  0  0
    5.5779   34.1414   23.0564 H   0  0  0  0  0  0  0  0  0  0  0  0
    4.7746   31.6773   22.1768 H   0  0  0  0  0  0  0  0  0  0  0  0
    4.7059   33.2412   21.2378 H   0  0  0  0  0  0  0  0  0  0  0  0
    7.2059   32.4611   20.6159 H   0  0  0  0  0  0  0  0  0  0  0  0
    6.4351   30.8444   20.8663 H   0  0  0  0  0  0  0  0  0  0  0  0
    4.6874   32.6116   19.3620 H   0  0  0  0  0  0  0  0  0  0  0  0
    6.3633   32.4238   18.5941 H   0  0  0  0  0  0  0  0  0  0  0  0
    4.1116   30.5253   18.4978 H   0  0  0  0  0  0  0  0  0  0  0  0
    5.5420   28.8405   17.6986 H   0  0  0  0  0  0  0  0  0  0  0  0
    7.7899   30.7083   18.7720 H   0  0  0  0  0  0  0  0  0  0  0  0
    7.8681   28.8993   18.7125 H   0  0  0  0  0  0  0  0  0  0  0  0
    8.4156   28.9239   16.3687 H   0  0  0  0  0  0  0  0  0  0  0  0
    8.7518   30.9456   15.1609 H   0  0  0  0  0  0  0  0  0  0  0  0
    7.1368   32.7848   16.0459 H   0  0  0  0  0  0  0  0  0  0  0  0
    7.5864   32.2328   17.7249 H   0  0  0  0  0  0  0  0  0  0  0  0
    9.0811   33.9454   15.7923 H   0  0  0  0  0  0  0  0  0  0  0  0
    8.9960   33.9632   17.6155 H   0  0  0  0  0  0  0  0  0  0  0  0
   10.3294   31.5779   16.5899 H   0  0  0  0  0  0  0  0  0  0  0  0
   11.1317   33.1331   16.0712 H   0  0  0  0  0  0  0  0  0  0  0  0
   12.2044   32.9780   18.0308 H   0  0  0  0  0  0  0  0  0  0  0  0
   10.6300   33.6182   18.6974 H   0  0  0  0  0  0  0  0  0  0  0  0
   10.6108   30.7106   18.4367 H   0  0  0  0  0  0  0  0  0  0  0  0
   11.9525   31.3009   19.4958 H   0  0  0  0  0  0  0  0  0  0  0  0
    9.9339   32.8747   20.3947 H   0  0  0  0  0  0  0  0  0  0  0  0
    8.9993   31.4037   19.8748 H   0  0  0  0  0  0  0  0  0  0  0  0
    9.4584   30.8872   22.0711 H   0  0  0  0  0  0  0  0  0  0  0  0
   10.8691   30.1349   21.1930 H   0  0  0  0  0  0  0  0  0  0  0  0
  1  2  1  0
  2  3  1  0
  3  4  1  0
  4  5  1  0
  5  6  1  0
  6  7  2  0
  7  8  1  0
  8  9  1  0
  9 10  2  0
 10 11  1  0
 11 12  1  0
 12 13  1  0
 13 14  1  0
 14 15  1  0
 15 16  1  0
 16 17  1  0
 17 18  1  0
 18 19  2  0
 18 20  1  0
  1 21  1  0
  1 22  1  0
  1 23  1  0
  2 24  1  0
  2 25  1  0
  3 26  1  0
  3 27  1  0
  4 28  1  0
  4 29  1  0
  5 30  1  0
  5 31  1  0
  6 32  1  0
  7 33  1  0
  8 34  1  0
  8 35  1  0
  9 36  1  0
 10 37  1  0
 11 38  1  0
 11 39  1  0
 12 40  1  0
 12 41  1  0
 13 42  1  0
 13 43  1  0
 14 44  1  0
 14 45  1  0
 15 46  1  0
 15 47  1  0
 16 48  1  0
 16 49  1  0
 17 50  1  0
 17 51  1  0
M  CHG  1  20  -1
M  END
>  <meeko>  (5) 
{"is_sidechain": [false], "free_energy": -6.313, "intermolecular_energy": -11.268, "internal_energy": -2.191}

$$$$
linoleate_Clobe_run02
     RDKit          3D

 51 50  0  0  0  0  0  0  0  0999 V2000
   10.6370   32.9130   17.5850 C   0  0  0  0  0  0  0  0  0  0  0  0
    9.4790   32.2590   16.8480 C   0  0  0  0  0  0  0  0  0  0  0  0
    9.1430   30.8570   17.3590 C   0  0  0  0  0  0  0  0  0  0  0  0
    8.0370   30.1670   16.5550 C   0  0  0  0  0  0  0  0  0  0  0  0
    6.9630   29.5830   17.4820 C   0  0  0  0  0  0  0  0  0  0  0  0
    5.5310   29.9080   17.1490 C   0  0  0  0  0  0  0  0  0  0  0  0
    4.8430   31.0060   17.4970 C   0  0  0  0  0  0  0  0  0  0  0  0
    5.4260   32.1270   18.3100 C   0  0  0  0  0  0  0  0  0  0  0  0
    5.3560   31.8350   19.7800 C   0  0  0  0  0  0  0  0  0  0  0  0
    6.4250   31.8390   20.5910 C   0  0  0  0  0  0  0  0  0  0  0  0
    7.8230   32.1370   20.1280 C   0  0  0  0  0  0  0  0  0  0  0  0
    8.8150   32.3080   21.2830 C   0  0  0  0  0  0  0  0  0  0  0  0
   10.1180   31.5250   21.0840 C   0  0  0  0  0  0  0  0  0  0  0  0
   11.1760   31.8280   22.1510 C   0  0  0  0  0  0  0  0  0  0  0  0
   10.5770   32.1920   23.5120 C   0  0  0  0  0  0  0  0  0  0  0  0
   11.6760   32.5510   24.5210 C   0  0  0  0  0  0  0  0  0  0  0  0
   11.1200   33.2300   25.7720 C   0  0  0  0  0  0  0  0  0  0  0  0
   12.1940   33.6620   26.7400 C   0  0  0  0  0  0  0  0  0  0  0  0
   12.7530   34.7480   26.7580 O   0  0  0  0  0  0  0  0  0  0  0  0
   12.4460   32.6700   27.6310 O   0  0  0  0  0  0  0  0  0  0  0  0
   10.4785   32.8235   18.6698 H   0  0  0  0  0  0  0  0  0  0  0  0
   11.5768   32.4123   17.3092 H   0  0  0  0  0  0  0  0  0  0  0  0
   10.6934   33.9764   17.3092 H   0  0  0  0  0  0  0  0  0  0  0  0
    8.5888   32.8946   16.9648 H   0  0  0  0  0  0  0  0  0  0  0  0
    9.7830   32.1551   15.7960 H   0  0  0  0  0  0  0  0  0  0  0  0
   10.0513   30.2389   17.3048 H   0  0  0  0  0  0  0  0  0  0  0  0
    8.7760   30.9658   18.3902 H   0  0  0  0  0  0  0  0  0  0  0  0
    7.5702   30.9015   15.8823 H   0  0  0  0  0  0  0  0  0  0  0  0
    8.4854   29.3448   15.9780 H   0  0  0  0  0  0  0  0  0  0  0  0
    7.0685   28.4882   17.4657 H   0  0  0  0  0  0  0  0  0  0  0  0
    7.1440   30.0483   18.4622 H   0  0  0  0  0  0  0  0  0  0  0  0
    4.9873   29.1604   16.5528 H   0  0  0  0  0  0  0  0  0  0  0  0
    3.7962   31.0900   17.1696 H   0  0  0  0  0  0  0  0  0  0  0  0
    6.4787   32.2665   18.0231 H   0  0  0  0  0  0  0  0  0  0  0  0
    4.8417   33.0375   18.1110 H   0  0  0  0  0  0  0  0  0  0  0  0
    4.3733   31.6047   20.2174 H   0  0  0  0  0  0  0  0  0  0  0  0
    6.2689   31.6111   21.6557 H   0  0  0  0  0  0  0  0  0  0  0  0
    8.1656   31.3073   19.4922 H   0  0  0  0  0  0  0  0  0  0  0  0
    7.7907   33.0900   19.5795 H   0  0  0  0  0  0  0  0  0  0  0  0
    9.0604   33.3761   21.3773 H   0  0  0  0  0  0  0  0  0  0  0  0
    8.3321   31.9123   22.1886 H   0  0  0  0  0  0  0  0  0  0  0  0
    9.8877   30.4499   21.1160 H   0  0  0  0  0  0  0  0  0  0  0  0
   10.5368   31.8303   20.1137 H   0  0  0  0  0  0  0  0  0  0  0  0
   11.8108   30.9383   22.2757 H   0  0  0  0  0  0  0  0  0  0  0  0
   11.7485   32.7005   21.8033 H   0  0  0  0  0  0  0  0  0  0  0  0
    9.9056   33.0548   23.3899 H   0  0  0  0  0  0  0  0  0  0  0  0
   10.0228   31.3219   23.8938 H   0  0  0  0  0  0  0  0  0  0  0  0
   12.1950   31.6287   24.8209 H   0  0  0  0  0  0  0  0  0  0  0  0
   12.3615   33.2589   24.0321 H   0  0  0  0  0  0  0  0  0  0  0  0
   10.5493   34.1183   25.4635 H   0  0  0  0  0  0  0  0  0  0  0  0
   10.4887   32.4936   26.2909 H   0  0  0  0  0  0  0  0  0  0  0  0
  1  2  1  0
  2  3  1  0
  3  4  1  0
  4  5  1  0
  5  6  1  0
  6  7  2  0
  7  8  1  0
  8  9  1  0
  9 10  2  0
 10 11  1  0
 11 12  1  0
 12 13  1  0
 13 14  1  0
 14 15  1  0
 15 16  1  0
 16 17  1  0
 17 18  1  0
 18 19  2  0
 18 20  1  0
  1 21  1  0
  1 22  1  0
  1 23  1  0
  2 24  1  0
  2 25  1  0
  3 26  1  0
  3 27  1  0
  4 28  1  0
  4 29  1  0
  5 30  1  0
  5 31  1  0
  6 32  1  0
  7 33  1  0
  8 34  1  0
  8 35  1  0
  9 36  1  0
 10 37  1  0
 11 38  1  0
 11 39  1  0
 12 40  1  0
 12 41  1  0
 13 42  1  0
 13 43  1  0
 14 44  1  0
 14 45  1  0
 15 46  1  0
 15 47  1  0
 16 48  1  0
 16 49  1  0
 17 50  1  0
 17 51  1  0
M  CHG  1  20  -1
M  END
>  <meeko>  (6) 
{"is_sidechain": [false], "free_energy": -6.283, "intermolecular_energy": -11.815, "internal_energy": -1.59}

$$$$
linoleate_Clobe_run02
     RDKit          3D

 51 50  0  0  0  0  0  0  0  0999 V2000
    5.7820   31.8010   19.4790 C   0  0  0  0  0  0  0  0  0  0  0  0
    5.1580   31.4910   18.1270 C   0  0  0  0  0  0  0  0  0  0  0  0
    5.6790   30.1980   17.4960 C   0  0  0  0  0  0  0  0  0  0  0  0
    6.8330   29.5640   18.2770 C   0  0  0  0  0  0  0  0  0  0  0  0
    8.1240   29.5600   17.4480 C   0  0  0  0  0  0  0  0  0  0  0  0
    8.1760   30.4940   16.2690 C   0  0  0  0  0  0  0  0  0  0  0  0
    8.5480   31.7830   16.2670 C   0  0  0  0  0  0  0  0  0  0  0  0
    8.9860   32.5220   17.4990 C   0  0  0  0  0  0  0  0  0  0  0  0
   10.3850   32.1520   17.8950 C   0  0  0  0  0  0  0  0  0  0  0  0
   10.7360   31.7890   19.1380 C   0  0  0  0  0  0  0  0  0  0  0  0
    9.7720   31.7080   20.2870 C   0  0  0  0  0  0  0  0  0  0  0  0
   10.3950   31.1120   21.5540 C   0  0  0  0  0  0  0  0  0  0  0  0
   10.6770   32.1560   22.6400 C   0  0  0  0  0  0  0  0  0  0  0  0
   12.1350   32.1600   23.1130 C   0  0  0  0  0  0  0  0  0  0  0  0
   12.2820   32.3460   24.6250 C   0  0  0  0  0  0  0  0  0  0  0  0
   10.9710   32.8350   25.2520 C   0  0  0  0  0  0  0  0  0  0  0  0
   11.2030   33.8400   26.3790 C   0  0  0  0  0  0  0  0  0  0  0  0
   11.5320   33.1860   27.6990 C   0  0  0  0  0  0  0  0  0  0  0  0
   12.6040   32.6900   28.0100 O   0  0  0  0  0  0  0  0  0  0  0  0
   10.4610   33.2470   28.5310 O   0  0  0  0  0  0  0  0  0  0  0  0
    5.1068   31.4656   20.2800 H   0  0  0  0  0  0  0  0  0  0  0  0
    6.7448   31.2765   19.5674 H   0  0  0  0  0  0  0  0  0  0  0  0
    5.9456   32.8852   19.5674 H   0  0  0  0  0  0  0  0  0  0  0  0
    4.0697   31.4003   18.2585 H   0  0  0  0  0  0  0  0  0  0  0  0
    5.4294   32.3138   17.4493 H   0  0  0  0  0  0  0  0  0  0  0  0
    4.8514   29.4750   17.4480 H   0  0  0  0  0  0  0  0  0  0  0  0
    6.0640   30.4551   16.4981 H   0  0  0  0  0  0  0  0  0  0  0  0
    7.0005   30.1383   19.2001 H   0  0  0  0  0  0  0  0  0  0  0  0
    6.5656   28.5233   18.5125 H   0  0  0  0  0  0  0  0  0  0  0  0
    8.9524   29.8268   18.1208 H   0  0  0  0  0  0  0  0  0  0  0  0
    8.1868   28.5495   17.0178 H   0  0  0  0  0  0  0  0  0  0  0  0
    7.8748   30.0719   15.2989 H   0  0  0  0  0  0  0  0  0  0  0  0
    8.5313   32.3280   15.3116 H   0  0  0  0  0  0  0  0  0  0  0  0
    8.9450   33.6032   17.3006 H   0  0  0  0  0  0  0  0  0  0  0  0
    8.3107   32.2487   18.3232 H   0  0  0  0  0  0  0  0  0  0  0  0
   11.1674   32.1799   17.1223 H   0  0  0  0  0  0  0  0  0  0  0  0
   11.7899   31.5363   19.3264 H   0  0  0  0  0  0  0  0  0  0  0  0
    9.4150   32.7228   20.5166 H   0  0  0  0  0  0  0  0  0  0  0  0
    8.9518   31.0421   19.9805 H   0  0  0  0  0  0  0  0  0  0  0  0
    9.7033   30.3609   21.9630 H   0  0  0  0  0  0  0  0  0  0  0  0
   11.3614   30.6724   21.2660 H   0  0  0  0  0  0  0  0  0  0  0  0
   10.4376   33.1515   22.2379 H   0  0  0  0  0  0  0  0  0  0  0  0
   10.0533   31.8990   23.5089 H   0  0  0  0  0  0  0  0  0  0  0  0
   12.5952   31.2009   22.8331 H   0  0  0  0  0  0  0  0  0  0  0  0
   12.6310   33.0151   22.6305 H   0  0  0  0  0  0  0  0  0  0  0  0
   12.5606   31.3839   25.0797 H   0  0  0  0  0  0  0  0  0  0  0  0
   13.0602   33.1012   24.8097 H   0  0  0  0  0  0  0  0  0  0  0  0
   10.3632   33.3147   24.4707 H   0  0  0  0  0  0  0  0  0  0  0  0
   10.4589   31.9616   25.6820 H   0  0  0  0  0  0  0  0  0  0  0  0
   12.0391   34.4964   26.0958 H   0  0  0  0  0  0  0  0  0  0  0  0
   10.2664   34.4005   26.5158 H   0  0  0  0  0  0  0  0  0  0  0  0
  1  2  1  0
  2  3  1  0
  3  4  1  0
  4  5  1  0
  5  6  1  0
  6  7  2  0
  7  8  1  0
  8  9  1  0
  9 10  2  0
 10 11  1  0
 11 12  1  0
 12 13  1  0
 13 14  1  0
 14 15  1  0
 15 16  1  0
 16 17  1  0
 17 18  1  0
 18 19  2  0
 18 20  1  0
  1 21  1  0
  1 22  1  0
  1 23  1  0
  2 24  1  0
  2 25  1  0
  3 26  1  0
  3 27  1  0
  4 28  1  0
  4 29  1  0
  5 30  1  0
  5 31  1  0
  6 32  1  0
  7 33  1  0
  8 34  1  0
  8 35  1  0
  9 36  1  0
 10 37  1  0
 11 38  1  0
 11 39  1  0
 12 40  1  0
 12 41  1  0
 13 42  1  0
 13 43  1  0
 14 44  1  0
 14 45  1  0
 15 46  1  0
 15 47  1  0
 16 48  1  0
 16 49  1  0
 17 50  1  0
 17 51  1  0
M  CHG  1  20  -1
M  END
>  <meeko>  (7) 
{"is_sidechain": [false], "free_energy": -6.251, "intermolecular_energy": -11.827, "internal_energy": -1.52}

$$$$
linoleate_Clobe_run02
     RDKit          3D

 51 50  0  0  0  0  0  0  0  0999 V2000
    5.3700   32.3880   17.9030 C   0  0  0  0  0  0  0  0  0  0  0  0
    5.0520   31.1490   18.7260 C   0  0  0  0  0  0  0  0  0  0  0  0
    5.9530   29.9540   18.4050 C   0  0  0  0  0  0  0  0  0  0  0  0
    6.2500   29.8040   16.9100 C   0  0  0  0  0  0  0  0  0  0  0  0
    7.7600   29.7520   16.6490 C   0  0  0  0  0  0  0  0  0  0  0  0
    8.4450   31.0620   16.3630 C   0  0  0  0  0  0  0  0  0  0  0  0
    9.2730   31.7420   17.1710 C   0  0  0  0  0  0  0  0  0  0  0  0
    9.6560   31.2770   18.5470 C   0  0  0  0  0  0  0  0  0  0  0  0
    8.7250   31.8190   19.5910 C   0  0  0  0  0  0  0  0  0  0  0  0
    9.0690   32.0010   20.8750 C   0  0  0  0  0  0  0  0  0  0  0  0
   10.4310   31.6850   21.4260 C   0  0  0  0  0  0  0  0  0  0  0  0
   10.5900   32.0780   22.8990 C   0  0  0  0  0  0  0  0  0  0  0  0
   12.0530   32.1900   23.3420 C   0  0  0  0  0  0  0  0  0  0  0  0
   12.2120   32.5750   24.8170 C   0  0  0  0  0  0  0  0  0  0  0  0
   10.8920   32.9680   25.4870 C   0  0  0  0  0  0  0  0  0  0  0  0
   11.0230   34.3070   26.2220 C   0  0  0  0  0  0  0  0  0  0  0  0
   12.4120   34.5070   26.8270 C   0  0  0  0  0  0  0  0  0  0  0  0
   12.5070   34.0440   28.2610 C   0  0  0  0  0  0  0  0  0  0  0  0
   12.1220   34.6590   29.2430 O   0  0  0  0  0  0  0  0  0  0  0  0
   13.0650   32.8070   28.3160 O   0  0  0  0  0  0  0  0  0  0  0  0
    5.5862   33.2302   18.5768 H   0  0  0  0  0  0  0  0  0  0  0  0
    6.2469   32.1916   17.2685 H   0  0  0  0  0  0  0  0  0  0  0  0
    4.5070   32.6382   17.2685 H   0  0  0  0  0  0  0  0  0  0  0  0
    5.1710   31.3985   19.7907 H   0  0  0  0  0  0  0  0  0  0  0  0
    4.0219   30.8526   18.4791 H   0  0  0  0  0  0  0  0  0  0  0  0
    6.9060   30.0818   18.9393 H   0  0  0  0  0  0  0  0  0  0  0  0
    5.4177   29.0473   18.7236 H   0  0  0  0  0  0  0  0  0  0  0  0
    5.7901   28.8742   16.5440 H   0  0  0  0  0  0  0  0  0  0  0  0
    5.8343   30.6751   16.3824 H   0  0  0  0  0  0  0  0  0  0  0  0
    8.2366   29.3145   17.5386 H   0  0  0  0  0  0  0  0  0  0  0  0
    7.8727   29.1611   15.7280 H   0  0  0  0  0  0  0  0  0  0  0  0
    8.2439   31.5129   15.3800 H   0  0  0  0  0  0  0  0  0  0  0  0
    9.6937   32.6906   16.8062 H   0  0  0  0  0  0  0  0  0  0  0  0
    9.6227   30.1779   18.5747 H   0  0  0  0  0  0  0  0  0  0  0  0
   10.6696   31.6444   18.7651 H   0  0  0  0  0  0  0  0  0  0  0  0
    7.7014   32.0824   19.2863 H   0  0  0  0  0  0  0  0  0  0  0  0
    8.3115   32.4042   21.5631 H   0  0  0  0  0  0  0  0  0  0  0  0
   10.6043   30.6028   21.3318 H   0  0  0  0  0  0  0  0  0  0  0  0
   11.1620   32.2710   20.8496 H   0  0  0  0  0  0  0  0  0  0  0  0
   10.1024   33.0516   23.0552 H   0  0  0  0  0  0  0  0  0  0  0  0
   10.1275   31.2816   23.5005 H   0  0  0  0  0  0  0  0  0  0  0  0
   12.5422   31.2181   23.1801 H   0  0  0  0  0  0  0  0  0  0  0  0
   12.5139   32.9906   22.7448 H   0  0  0  0  0  0  0  0  0  0  0  0
   12.6359   31.7162   25.3581 H   0  0  0  0  0  0  0  0  0  0  0  0
   12.8707   33.4552   24.8545 H   0  0  0  0  0  0  0  0  0  0  0  0
   10.1107   33.0555   24.7176 H   0  0  0  0  0  0  0  0  0  0  0  0
   10.6277   32.1916   26.2200 H   0  0  0  0  0  0  0  0  0  0  0  0
   10.8277   35.1217   25.5091 H   0  0  0  0  0  0  0  0  0  0  0  0
   10.2949   34.3092   27.0466 H   0  0  0  0  0  0  0  0  0  0  0  0
   13.1396   33.9404   26.2275 H   0  0  0  0  0  0  0  0  0  0  0  0
   12.6211   35.5869   26.8170 H   0  0  0  0  0  0  0  0  0  0  0  0
  1  2  1  0
  2  3  1  0
  3  4  1  0
  4  5  1  0
  5  6  1  0
  6  7  2  0
  7  8  1  0
  8  9  1  0
  9 10  2  0
 10 11  1  0
 11 12  1  0
 12 13  1  0
 13 14  1  0
 14 15  1  0
 15 16  1  0
 16 17  1  0
 17 18  1  0
 18 19  2  0
 18 20  1  0
  1 21  1  0
  1 22  1  0
  1 23  1  0
  2 24  1  0
  2 25  1  0
  3 26  1  0
  3 27  1  0
  4 28  1  0
  4 29  1  0
  5 30  1  0
  5 31  1  0
  6 32  1  0
  7 33  1  0
  8 34  1  0
  8 35  1  0
  9 36  1  0
 10 37  1  0
 11 38  1  0
 11 39  1  0
 12 40  1  0
 12 41  1  0
 13 42  1  0
 13 43  1  0
 14 44  1  0
 14 45  1  0
 15 46  1  0
 15 47  1  0
 16 48  1  0
 16 49  1  0
 17 50  1  0
 17 51  1  0
M  CHG  1  20  -1
M  END
>  <meeko>  (8) 
{"is_sidechain": [false], "free_energy": -6.25, "intermolecular_energy": -11.843, "internal_energy": -1.503}

$$$$
linoleate_Clobe_run02
     RDKit          3D

 51 50  0  0  0  0  0  0  0  0999 V2000
    4.3910   34.6450   16.1240 C   0  0  0  0  0  0  0  0  0  0  0  0
    4.2720   33.2860   16.7970 C   0  0  0  0  0  0  0  0  0  0  0  0
    5.5760   32.8070   17.4400 C   0  0  0  0  0  0  0  0  0  0  0  0
    5.3700   32.1380   18.8020 C   0  0  0  0  0  0  0  0  0  0  0  0
    5.5050   30.6140   18.6960 C   0  0  0  0  0  0  0  0  0  0  0  0
    5.7420   30.0490   17.3220 C   0  0  0  0  0  0  0  0  0  0  0  0
    6.9150   29.6730   16.7860 C   0  0  0  0  0  0  0  0  0  0  0  0
    8.2260   29.7670   17.5130 C   0  0  0  0  0  0  0  0  0  0  0  0
    8.9280   31.0590   17.2160 C   0  0  0  0  0  0  0  0  0  0  0  0
    9.3240   31.9260   18.1600 C   0  0  0  0  0  0  0  0  0  0  0  0
    9.1140   31.7090   19.6320 C   0  0  0  0  0  0  0  0  0  0  0  0
   10.4150   31.7710   20.4400 C   0  0  0  0  0  0  0  0  0  0  0  0
   10.2380   31.3650   21.9070 C   0  0  0  0  0  0  0  0  0  0  0  0
   10.8700   32.3550   22.8910 C   0  0  0  0  0  0  0  0  0  0  0  0
    9.8760   32.9140   23.9120 C   0  0  0  0  0  0  0  0  0  0  0  0
   10.4220   32.7900   25.3400 C   0  0  0  0  0  0  0  0  0  0  0  0
   11.9350   32.9970   25.4060 C   0  0  0  0  0  0  0  0  0  0  0  0
   12.3910   33.6260   26.7000 C   0  0  0  0  0  0  0  0  0  0  0  0
   12.6220   34.8120   26.8820 O   0  0  0  0  0  0  0  0  0  0  0  0
   12.4870   32.6820   27.6710 O   0  0  0  0  0  0  0  0  0  0  0  0
    4.4597   35.4297   16.8919 H   0  0  0  0  0  0  0  0  0  0  0  0
    5.2944   34.6657   15.4967 H   0  0  0  0  0  0  0  0  0  0  0  0
    3.5050   34.8224   15.4967 H   0  0  0  0  0  0  0  0  0  0  0  0
    3.5014   33.3511   17.5793 H   0  0  0  0  0  0  0  0  0  0  0  0
    4.0111   32.5588   16.0140 H   0  0  0  0  0  0  0  0  0  0  0  0
    6.0531   32.0824   16.7637 H   0  0  0  0  0  0  0  0  0  0  0  0
    6.2033   33.6954   17.6051 H   0  0  0  0  0  0  0  0  0  0  0  0
    6.1252   32.5172   19.5062 H   0  0  0  0  0  0  0  0  0  0  0  0
    4.3561   32.3745   19.1571 H   0  0  0  0  0  0  0  0  0  0  0  0
    6.3497   30.3095   19.3315 H   0  0  0  0  0  0  0  0  0  0  0  0
    4.5279   30.2157   19.0069 H   0  0  0  0  0  0  0  0  0  0  0  0
    4.8540   29.9303   16.6838 H   0  0  0  0  0  0  0  0  0  0  0  0
    6.9154   29.2752   15.7604 H   0  0  0  0  0  0  0  0  0  0  0  0
    8.0400   29.7018   18.5952 H   0  0  0  0  0  0  0  0  0  0  0  0
    8.8679   28.9399   17.1754 H   0  0  0  0  0  0  0  0  0  0  0  0
    9.1296   31.3098   16.1641 H   0  0  0  0  0  0  0  0  0  0  0  0
    9.8310   32.8477   17.8384 H   0  0  0  0  0  0  0  0  0  0  0  0
    8.4317   32.4862   20.0067 H   0  0  0  0  0  0  0  0  0  0  0  0
    8.6968   30.6991   19.7587 H   0  0  0  0  0  0  0  0  0  0  0  0
   11.1466   31.0931   19.9761 H   0  0  0  0  0  0  0  0  0  0  0  0
   10.7546   32.8172   20.4304 H   0  0  0  0  0  0  0  0  0  0  0  0
    9.1615   31.2973   22.1230 H   0  0  0  0  0  0  0  0  0  0  0  0
   10.7496   30.4006   22.0418 H   0  0  0  0  0  0  0  0  0  0  0  0
   11.6760   31.8402   23.4345 H   0  0  0  0  0  0  0  0  0  0  0  0
   11.2437   33.2054   22.3018 H   0  0  0  0  0  0  0  0  0  0  0  0
    9.6908   33.9752   23.6892 H   0  0  0  0  0  0  0  0  0  0  0  0
    8.9428   32.3357   23.8435 H   0  0  0  0  0  0  0  0  0  0  0  0
    9.9341   33.5470   25.9716 H   0  0  0  0  0  0  0  0  0  0  0  0
   10.2075   31.7707   25.6935 H   0  0  0  0  0  0  0  0  0  0  0  0
   12.4271   32.0189   25.2998 H   0  0  0  0  0  0  0  0  0  0  0  0
   12.2074   33.6858   24.5928 H   0  0  0  0  0  0  0  0  0  0  0  0
  1  2  1  0
  2  3  1  0
  3  4  1  0
  4  5  1  0
  5  6  1  0
  6  7  2  0
  7  8  1  0
  8  9  1  0
  9 10  2  0
 10 11  1  0
 11 12  1  0
 12 13  1  0
 13 14  1  0
 14 15  1  0
 15 16  1  0
 16 17  1  0
 17 18  1  0
 18 19  2  0
 18 20  1  0
  1 21  1  0
  1 22  1  0
  1 23  1  0
  2 24  1  0
  2 25  1  0
  3 26  1  0
  3 27  1  0
  4 28  1  0
  4 29  1  0
  5 30  1  0
  5 31  1  0
  6 32  1  0
  7 33  1  0
  8 34  1  0
  8 35  1  0
  9 36  1  0
 10 37  1  0
 11 38  1  0
 11 39  1  0
 12 40  1  0
 12 41  1  0
 13 42  1  0
 13 43  1  0
 14 44  1  0
 14 45  1  0
 15 46  1  0
 15 47  1  0
 16 48  1  0
 16 49  1  0
 17 50  1  0
 17 51  1  0
M  CHG  1  20  -1
M  END
>  <meeko>  (9) 
{"is_sidechain": [false], "free_energy": -6.211, "intermolecular_energy": -11.905, "internal_energy": -1.368}

$$$$
linoleate_Clobe_run02
     RDKit          3D

 51 50  0  0  0  0  0  0  0  0999 V2000
    9.2160   32.4650   15.5660 C   0  0  0  0  0  0  0  0  0  0  0  0
    8.1410   33.0540   16.4670 C   0  0  0  0  0  0  0  0  0  0  0  0
    8.5360   33.0930   17.9450 C   0  0  0  0  0  0  0  0  0  0  0  0
   10.0380   32.8990   18.1770 C   0  0  0  0  0  0  0  0  0  0  0  0
   10.3150   31.6010   18.9450 C   0  0  0  0  0  0  0  0  0  0  0  0
   11.5270   31.5860   19.8370 C   0  0  0  0  0  0  0  0  0  0  0  0
   11.5530   31.4570   21.1730 C   0  0  0  0  0  0  0  0  0  0  0  0
   10.3200   31.3020   22.0160 C   0  0  0  0  0  0  0  0  0  0  0  0
   10.1300   32.4740   22.9330 C   0  0  0  0  0  0  0  0  0  0  0  0
    9.0970   33.3270   22.8490 C   0  0  0  0  0  0  0  0  0  0  0  0
    8.0020   33.2120   21.8260 C   0  0  0  0  0  0  0  0  0  0  0  0
    6.5980   33.2930   22.4360 C   0  0  0  0  0  0  0  0  0  0  0  0
    5.5730   32.4110   21.7160 C   0  0  0  0  0  0  0  0  0  0  0  0
    6.0900   31.8360   20.3930 C   0  0  0  0  0  0  0  0  0  0  0  0
    4.9810   31.5720   19.3720 C   0  0  0  0  0  0  0  0  0  0  0  0
    5.5040   30.7470   18.1890 C   0  0  0  0  0  0  0  0  0  0  0  0
    6.7540   29.9440   18.5450 C   0  0  0  0  0  0  0  0  0  0  0  0
    7.4140   29.3110   17.3440 C   0  0  0  0  0  0  0  0  0  0  0  0
    7.1940   29.5830   16.1740 O   0  0  0  0  0  0  0  0  0  0  0  0
    8.3320   28.3940   17.7450 O   0  0  0  0  0  0  0  0  0  0  0  0
   10.0138   32.0279   16.1845 H   0  0  0  0  0  0  0  0  0  0  0  0
    8.7742   31.6829   14.9310 H   0  0  0  0  0  0  0  0  0  0  0  0
    9.6373   33.2583   14.9310 H   0  0  0  0  0  0  0  0  0  0  0  0
    7.9335   34.0820   16.1350 H   0  0  0  0  0  0  0  0  0  0  0  0
    7.2584   32.4026   16.3855 H   0  0  0  0  0  0  0  0  0  0  0  0
    8.2421   34.0687   18.3592 H   0  0  0  0  0  0  0  0  0  0  0  0
    8.0195   32.2587   18.4421 H   0  0  0  0  0  0  0  0  0  0  0  0
   10.5493   32.8568   17.2040 H   0  0  0  0  0  0  0  0  0  0  0  0
   10.4114   33.7444   18.7736 H   0  0  0  0  0  0  0  0  0  0  0  0
    9.4367   31.3922   19.5734 H   0  0  0  0  0  0  0  0  0  0  0  0
   10.5178   30.8462   18.1710 H   0  0  0  0  0  0  0  0  0  0  0  0
   12.5015   31.6928   19.3380 H   0  0  0  0  0  0  0  0  0  0  0  0
   12.5304   31.4653   21.6775 H   0  0  0  0  0  0  0  0  0  0  0  0
    9.4439   31.2188   21.3560 H   0  0  0  0  0  0  0  0  0  0  0  0
   10.4341   30.3973   22.6313 H   0  0  0  0  0  0  0  0  0  0  0  0
   10.8802   32.6441   23.7193 H   0  0  0  0  0  0  0  0  0  0  0  0
    9.0492   34.1569   23.5694 H   0  0  0  0  0  0  0  0  0  0  0  0
    8.1153   34.0293   21.0986 H   0  0  0  0  0  0  0  0  0  0  0  0
    8.0975   32.2234   21.3531 H   0  0  0  0  0  0  0  0  0  0  0  0
    6.6552   32.9748   23.4874 H   0  0  0  0  0  0  0  0  0  0  0  0
    6.2589   34.3347   22.3362 H   0  0  0  0  0  0  0  0  0  0  0  0
    5.3051   31.5750   22.3789 H   0  0  0  0  0  0  0  0  0  0  0  0
    4.7069   33.0462   21.4785 H   0  0  0  0  0  0  0  0  0  0  0  0
    6.8030   32.5510   19.9567 H   0  0  0  0  0  0  0  0  0  0  0  0
    6.5599   30.8678   20.6206 H   0  0  0  0  0  0  0  0  0  0  0  0
    4.1654   31.0201   19.8622 H   0  0  0  0  0  0  0  0  0  0  0  0
    4.6196   32.5386   18.9911 H   0  0  0  0  0  0  0  0  0  0  0  0
    4.7157   30.0497   17.8689 H   0  0  0  0  0  0  0  0  0  0  0  0
    5.7738   31.4478   17.3852 H   0  0  0  0  0  0  0  0  0  0  0  0
    7.4774   30.6180   19.0271 H   0  0  0  0  0  0  0  0  0  0  0  0
    6.4405   29.1291   19.2141 H   0  0  0  0  0  0  0  0  0  0  0  0
  1  2  1  0
  2  3  1  0
  3  4  1  0
  4  5  1  0
  5  6  1  0
  6  7  2  0
  7  8  1  0
  8  9  1  0
  9 10  2  0
 10 11  1  0
 11 12  1  0
 12 13  1  0
 13 14  1  0
 14 15  1  0
 15 16  1  0
 16 17  1  0
 17 18  1  0
 18 19  2  0
 18 20  1  0
  1 21  1  0
  1 22  1  0
  1 23  1  0
  2 24  1  0
  2 25  1  0
  3 26  1  0
  3 27  1  0
  4 28  1  0
  4 29  1  0
  5 30  1  0
  5 31  1  0
  6 32  1  0
  7 33  1  0
  8 34  1  0
  8 35  1  0
  9 36  1  0
 10 37  1  0
 11 38  1  0
 11 39  1  0
 12 40  1  0
 12 41  1  0
 13 42  1  0
 13 43  1  0
 14 44  1  0
 14 45  1  0
 15 46  1  0
 15 47  1  0
 16 48  1  0
 16 49  1  0
 17 50  1  0
 17 51  1  0
M  CHG  1  20  -1
M  END
>  <meeko>  (10) 
{"is_sidechain": [false], "free_energy": -6.2, "intermolecular_energy": -10.905, "internal_energy": -2.349}

$$$$
linoleate_Clobe_run02
     RDKit          3D

 51 50  0  0  0  0  0  0  0  0999 V2000
    9.8720   35.9270   29.5800 C   0  0  0  0  0  0  0  0  0  0  0  0
   10.1380   34.7040   30.4440 C   0  0  0  0  0  0  0  0  0  0  0  0
   11.6220   34.3490   30.5620 C   0  0  0  0  0  0  0  0  0  0  0  0
   12.5530   35.5050   30.1860 C   0  0  0  0  0  0  0  0  0  0  0  0
   13.4800   35.1150   29.0290 C   0  0  0  0  0  0  0  0  0  0  0  0
   13.0750   35.5680   27.6520 C   0  0  0  0  0  0  0  0  0  0  0  0
   12.3830   34.8730   26.7360 C   0  0  0  0  0  0  0  0  0  0  0  0
   11.8890   33.4710   26.9580 C   0  0  0  0  0  0  0  0  0  0  0  0
   10.6860   33.1720   26.1140 C   0  0  0  0  0  0  0  0  0  0  0  0
   10.7500   32.6080   24.8980 C   0  0  0  0  0  0  0  0  0  0  0  0
   12.0350   32.2060   24.2320 C   0  0  0  0  0  0  0  0  0  0  0  0
   11.8570   31.8330   22.7560 C   0  0  0  0  0  0  0  0  0  0  0  0
   10.4220   32.0190   22.2530 C   0  0  0  0  0  0  0  0  0  0  0  0
   10.2730   31.7880   20.7450 C   0  0  0  0  0  0  0  0  0  0  0  0
    8.8160   31.7000   20.2860 C   0  0  0  0  0  0  0  0  0  0  0  0
    8.7060   31.8470   18.7630 C   0  0  0  0  0  0  0  0  0  0  0  0
    9.3850   30.7000   18.0160 C   0  0  0  0  0  0  0  0  0  0  0  0
    8.4060   29.7600   17.3550 C   0  0  0  0  0  0  0  0  0  0  0  0
    7.8570   28.8040   17.8810 O   0  0  0  0  0  0  0  0  0  0  0  0
    8.1850   30.1430   16.0710 O   0  0  0  0  0  0  0  0  0  0  0  0
    9.6827   36.7976   30.2252 H   0  0  0  0  0  0  0  0  0  0  0  0
   10.7481   36.1249   28.9450 H   0  0  0  0  0  0  0  0  0  0  0  0
    8.9929   35.7431   28.9450 H   0  0  0  0  0  0  0  0  0  0  0  0
    9.7456   34.8989   31.4530 H   0  0  0  0  0  0  0  0  0  0  0  0
    9.6397   33.8516   29.9591 H   0  0  0  0  0  0  0  0  0  0  0  0
   11.8297   34.0576   31.6022 H   0  0  0  0  0  0  0  0  0  0  0  0
   11.8182   33.5295   29.8550 H   0  0  0  0  0  0  0  0  0  0  0  0
   11.9459   36.3710   29.8834 H   0  0  0  0  0  0  0  0  0  0  0  0
   13.1722   35.7528   31.0607 H   0  0  0  0  0  0  0  0  0  0  0  0
   14.4725   35.5395   29.2404 H   0  0  0  0  0  0  0  0  0  0  0  0
   13.4467   34.0161   28.9917 H   0  0  0  0  0  0  0  0  0  0  0  0
   13.3811   36.5844   27.3636 H   0  0  0  0  0  0  0  0  0  0  0  0
   12.1658   35.3551   25.7714 H   0  0  0  0  0  0  0  0  0  0  0  0
   12.6914   32.7642   26.6998 H   0  0  0  0  0  0  0  0  0  0  0  0
   11.6028   33.3693   28.0152 H   0  0  0  0  0  0  0  0  0  0  0  0
    9.6945   33.4297   26.5146 H   0  0  0  0  0  0  0  0  0  0  0  0
    9.8081   32.4300   24.3584 H   0  0  0  0  0  0  0  0  0  0  0  0
   12.7412   33.0468   24.2978 H   0  0  0  0  0  0  0  0  0  0  0  0
   12.4085   31.3122   24.7531 H   0  0  0  0  0  0  0  0  0  0  0  0
   12.5234   32.4671   22.1528 H   0  0  0  0  0  0  0  0  0  0  0  0
   12.1008   30.7648   22.6581 H   0  0  0  0  0  0  0  0  0  0  0  0
    9.7718   31.3062   22.7813 H   0  0  0  0  0  0  0  0  0  0  0  0
   10.1400   33.0635   22.4519 H   0  0  0  0  0  0  0  0  0  0  0  0
   10.7561   32.6220   20.2149 H   0  0  0  0  0  0  0  0  0  0  0  0
   10.7452   30.8213   20.5158 H   0  0  0  0  0  0  0  0  0  0  0  0
    8.4042   30.7243   20.5833 H   0  0  0  0  0  0  0  0  0  0  0  0
    8.2516   32.5182   20.7573 H   0  0  0  0  0  0  0  0  0  0  0  0
    7.6416   31.8676   18.4862 H   0  0  0  0  0  0  0  0  0  0  0  0
    9.2149   32.7799   18.4787 H   0  0  0  0  0  0  0  0  0  0  0  0
   10.0388   31.1260   17.2407 H   0  0  0  0  0  0  0  0  0  0  0  0
    9.9502   30.1158   18.7572 H   0  0  0  0  0  0  0  0  0  0  0  0
  1  2  1  0
  2  3  1  0
  3  4  1  0
  4  5  1  0
  5  6  1  0
  6  7  2  0
  7  8  1  0
  8  9  1  0
  9 10  2  0
 10 11  1  0
 11 12  1  0
 12 13  1  0
 13 14  1  0
 14 15  1  0
 15 16  1  0
 16 17  1  0
 17 18  1  0
 18 19  2  0
 18 20  1  0
  1 21  1  0
  1 22  1  0
  1 23  1  0
  2 24  1  0
  2 25  1  0
  3 26  1  0
  3 27  1  0
  4 28  1  0
  4 29  1  0
  5 30  1  0
  5 31  1  0
  6 32  1  0
  7 33  1  0
  8 34  1  0
  8 35  1  0
  9 36  1  0
 10 37  1  0
 11 38  1  0
 11 39  1  0
 12 40  1  0
 12 41  1  0
 13 42  1  0
 13 43  1  0
 14 44  1  0
 14 45  1  0
 15 46  1  0
 15 47  1  0
 16 48  1  0
 16 49  1  0
 17 50  1  0
 17 51  1  0
M  CHG  1  20  -1
M  END
>  <meeko>  (11) 
{"is_sidechain": [false], "free_energy": -6.165, "intermolecular_energy": -11.907, "internal_energy": -1.284}

$$$$
linoleate_Clobe_run02
     RDKit          3D

 51 50  0  0  0  0  0  0  0  0999 V2000
    8.5390   31.5550   16.4060 C   0  0  0  0  0  0  0  0  0  0  0  0
    8.9560   30.3750   17.2700 C   0  0  0  0  0  0  0  0  0  0  0  0
    7.8800   29.2930   17.3870 C   0  0  0  0  0  0  0  0  0  0  0  0
    6.5600   29.6730   16.7080 C   0  0  0  0  0  0  0  0  0  0  0  0
    5.4690   29.9640   17.7460 C   0  0  0  0  0  0  0  0  0  0  0  0
    5.0340   31.3980   17.8890 C   0  0  0  0  0  0  0  0  0  0  0  0
    5.2120   32.2020   18.9490 C   0  0  0  0  0  0  0  0  0  0  0  0
    5.9040   31.7700   20.2100 C   0  0  0  0  0  0  0  0  0  0  0  0
    7.3960   31.7730   20.0490 C   0  0  0  0  0  0  0  0  0  0  0  0
    8.2310   32.4430   20.8560 C   0  0  0  0  0  0  0  0  0  0  0  0
    7.7760   33.2720   22.0240 C   0  0  0  0  0  0  0  0  0  0  0  0
    8.8720   33.4840   23.0750 C   0  0  0  0  0  0  0  0  0  0  0  0
   10.0740   32.5490   22.8950 C   0  0  0  0  0  0  0  0  0  0  0  0
   10.8440   32.2960   24.1950 C   0  0  0  0  0  0  0  0  0  0  0  0
   10.1680   32.8980   25.4290 C   0  0  0  0  0  0  0  0  0  0  0  0
   11.1130   33.8530   26.1670 C   0  0  0  0  0  0  0  0  0  0  0  0
   12.2820   33.1230   26.8260 C   0  0  0  0  0  0  0  0  0  0  0  0
   12.3170   33.2910   28.3260 C   0  0  0  0  0  0  0  0  0  0  0  0
   13.3180   33.4290   29.0120 O   0  0  0  0  0  0  0  0  0  0  0  0
   11.0540   33.2980   28.8250 O   0  0  0  0  0  0  0  0  0  0  0  0
    8.2421   32.3950   17.0512 H   0  0  0  0  0  0  0  0  0  0  0  0
    9.3834   31.8610   15.7710 H   0  0  0  0  0  0  0  0  0  0  0  0
    7.6898   31.2625   15.7710 H   0  0  0  0  0  0  0  0  0  0  0  0
    9.8576   29.9233   16.8306 H   0  0  0  0  0  0  0  0  0  0  0  0
    9.1353   30.7636   18.2833 H   0  0  0  0  0  0  0  0  0  0  0  0
    8.2595   28.3717   16.9209 H   0  0  0  0  0  0  0  0  0  0  0  0
    7.6681   29.1596   18.4581 H   0  0  0  0  0  0  0  0  0  0  0  0
    6.7182   30.5704   16.0919 H   0  0  0  0  0  0  0  0  0  0  0  0
    6.2323   28.8285   16.0840 H   0  0  0  0  0  0  0  0  0  0  0  0
    4.5826   29.3730   17.4719 H   0  0  0  0  0  0  0  0  0  0  0  0
    5.9165   29.7007   18.7158 H   0  0  0  0  0  0  0  0  0  0  0  0
    4.5107   31.8369   17.0267 H   0  0  0  0  0  0  0  0  0  0  0  0
    4.8307   33.2322   18.8910 H   0  0  0  0  0  0  0  0  0  0  0  0
    5.6310   32.4603   21.0217 H   0  0  0  0  0  0  0  0  0  0  0  0
    5.5848   30.7436   20.4438 H   0  0  0  0  0  0  0  0  0  0  0  0
    7.8294   31.1922   19.2214 H   0  0  0  0  0  0  0  0  0  0  0  0
    9.3102   32.3825   20.6517 H   0  0  0  0  0  0  0  0  0  0  0  0
    7.4540   34.2554   21.6509 H   0  0  0  0  0  0  0  0  0  0  0  0
    6.9545   32.7273   22.5123 H   0  0  0  0  0  0  0  0  0  0  0  0
    9.2250   34.5236   23.0065 H   0  0  0  0  0  0  0  0  0  0  0  0
    8.4294   33.2604   24.0569 H   0  0  0  0  0  0  0  0  0  0  0  0
    9.7116   31.5843   22.5103 H   0  0  0  0  0  0  0  0  0  0  0  0
   10.7670   33.0397   22.1957 H   0  0  0  0  0  0  0  0  0  0  0  0
   10.9332   31.2095   24.3415 H   0  0  0  0  0  0  0  0  0  0  0  0
   11.8246   32.7836   24.0917 H   0  0  0  0  0  0  0  0  0  0  0  0
    9.2721   33.4525   25.1129 H   0  0  0  0  0  0  0  0  0  0  0  0
    9.8961   32.0796   26.1118 H   0  0  0  0  0  0  0  0  0  0  0  0
   11.5128   34.5813   25.4461 H   0  0  0  0  0  0  0  0  0  0  0  0
   10.5357   34.3475   26.9621 H   0  0  0  0  0  0  0  0  0  0  0  0
   12.1991   32.0505   26.5959 H   0  0  0  0  0  0  0  0  0  0  0  0
   13.2086   33.5604   26.4258 H   0  0  0  0  0  0  0  0  0  0  0  0
  1  2  1  0
  2  3  1  0
  3  4  1  0
  4  5  1  0
  5  6  1  0
  6  7  2  0
  7  8  1  0
  8  9  1  0
  9 10  2  0
 10 11  1  0
 11 12  1  0
 12 13  1  0
 13 14  1  0
 14 15  1  0
 15 16  1  0
 16 17  1  0
 17 18  1  0
 18 19  2  0
 18 20  1  0
  1 21  1  0
  1 22  1  0
  1 23  1  0
  2 24  1  0
  2 25  1  0
  3 26  1  0
  3 27  1  0
  4 28  1  0
  4 29  1  0
  5 30  1  0
  5 31  1  0
  6 32  1  0
  7 33  1  0
  8 34  1  0
  8 35  1  0
  9 36  1  0
 10 37  1  0
 11 38  1  0
 11 39  1  0
 12 40  1  0
 12 41  1  0
 13 42  1  0
 13 43  1  0
 14 44  1  0
 14 45  1  0
 15 46  1  0
 15 47  1  0
 16 48  1  0
 16 49  1  0
 17 50  1  0
 17 51  1  0
M  CHG  1  20  -1
M  END
>  <meeko>  (12) 
{"is_sidechain": [false], "free_energy": -6.141, "intermolecular_energy": -11.683, "internal_energy": -1.462}

$$$$
linoleate_Clobe_run02
     RDKit          3D

 51 50  0  0  0  0  0  0  0  0999 V2000
    5.5990   29.9390   17.2200 C   0  0  0  0  0  0  0  0  0  0  0  0
    5.9070   30.2930   18.6660 C   0  0  0  0  0  0  0  0  0  0  0  0
    5.8560   31.7950   18.9530 C   0  0  0  0  0  0  0  0  0  0  0  0
    5.9530   32.6570   17.6900 C   0  0  0  0  0  0  0  0  0  0  0  0
    7.3590   33.2470   17.5310 C   0  0  0  0  0  0  0  0  0  0  0  0
    8.2050   32.6940   16.4160 C   0  0  0  0  0  0  0  0  0  0  0  0
    9.0890   31.6860   16.4860 C   0  0  0  0  0  0  0  0  0  0  0  0
    9.3810   30.9260   17.7490 C   0  0  0  0  0  0  0  0  0  0  0  0
   10.5990   31.4600   18.4430 C   0  0  0  0  0  0  0  0  0  0  0  0
   10.6270   31.8020   19.7410 C   0  0  0  0  0  0  0  0  0  0  0  0
    9.4420   31.6900   20.6580 C   0  0  0  0  0  0  0  0  0  0  0  0
    9.7080   32.2610   22.0560 C   0  0  0  0  0  0  0  0  0  0  0  0
   11.1440   32.0350   22.5400 C   0  0  0  0  0  0  0  0  0  0  0  0
   11.2990   32.1630   24.0590 C   0  0  0  0  0  0  0  0  0  0  0  0
   10.1310   32.8920   24.7290 C   0  0  0  0  0  0  0  0  0  0  0  0
   10.6230   33.8080   25.8550 C   0  0  0  0  0  0  0  0  0  0  0  0
   11.0730   33.0270   27.0890 C   0  0  0  0  0  0  0  0  0  0  0  0
   12.4310   33.4480   27.5960 C   0  0  0  0  0  0  0  0  0  0  0  0
   13.1230   32.8360   28.3950 O   0  0  0  0  0  0  0  0  0  0  0  0
   12.8070   34.6130   27.0100 O   0  0  0  0  0  0  0  0  0  0  0  0
    4.8772   29.1094   17.1913 H   0  0  0  0  0  0  0  0  0  0  0  0
    5.1709   30.8153   16.7112 H   0  0  0  0  0  0  0  0  0  0  0  0
    6.5260   29.6362   16.7112 H   0  0  0  0  0  0  0  0  0  0  0  0
    5.1715   29.7905   19.3113 H   0  0  0  0  0  0  0  0  0  0  0  0
    6.9361   29.9608   18.8673 H   0  0  0  0  0  0  0  0  0  0  0  0
    4.9057   32.0218   19.4584 H   0  0  0  0  0  0  0  0  0  0  0  0
    6.7269   32.0366   19.5800 H   0  0  0  0  0  0  0  0  0  0  0  0
    5.7229   32.0353   16.8122 H   0  0  0  0  0  0  0  0  0  0  0  0
    5.2343   33.4853   17.7763 H   0  0  0  0  0  0  0  0  0  0  0  0
    7.2489   34.3281   17.3603 H   0  0  0  0  0  0  0  0  0  0  0  0
    7.8902   32.9780   18.4559 H   0  0  0  0  0  0  0  0  0  0  0  0
    8.0855   33.1699   15.4315 H   0  0  0  0  0  0  0  0  0  0  0  0
    9.6281   31.4014   15.5704 H   0  0  0  0  0  0  0  0  0  0  0  0
    8.5178   31.0118   18.4254 H   0  0  0  0  0  0  0  0  0  0  0  0
    9.5679   29.8749   17.4839 H   0  0  0  0  0  0  0  0  0  0  0  0
   11.5213   31.5780   17.8552 H   0  0  0  0  0  0  0  0  0  0  0  0
   11.5705   32.1858   20.1565 H   0  0  0  0  0  0  0  0  0  0  0  0
    8.5997   32.2379   20.2103 H   0  0  0  0  0  0  0  0  0  0  0  0
    9.2194   30.6194   20.7776 H   0  0  0  0  0  0  0  0  0  0  0  0
    9.5133   33.3434   22.0338 H   0  0  0  0  0  0  0  0  0  0  0  0
    9.0419   31.7342   22.7552 H   0  0  0  0  0  0  0  0  0  0  0  0
   11.4582   31.0241   22.2410 H   0  0  0  0  0  0  0  0  0  0  0  0
   11.7688   32.8158   22.0819 H   0  0  0  0  0  0  0  0  0  0  0  0
   11.3724   31.1530   24.4886 H   0  0  0  0  0  0  0  0  0  0  0  0
   12.2042   32.7598   24.2444 H   0  0  0  0  0  0  0  0  0  0  0  0
    9.6071   33.4987   23.9758 H   0  0  0  0  0  0  0  0  0  0  0  0
    9.4533   32.1411   25.1614 H   0  0  0  0  0  0  0  0  0  0  0  0
   11.4722   34.3999   25.4828 H   0  0  0  0  0  0  0  0  0  0  0  0
    9.7825   34.4514   26.1543 H   0  0  0  0  0  0  0  0  0  0  0  0
   10.3362   33.1846   27.8905 H   0  0  0  0  0  0  0  0  0  0  0  0
   11.1463   31.9688   26.7976 H   0  0  0  0  0  0  0  0  0  0  0  0
  1  2  1  0
  2  3  1  0
  3  4  1  0
  4  5  1  0
  5  6  1  0
  6  7  2  0
  7  8  1  0
  8  9  1  0
  9 10  2  0
 10 11  1  0
 11 12  1  0
 12 13  1  0
 13 14  1  0
 14 15  1  0
 15 16  1  0
 16 17  1  0
 17 18  1  0
 18 19  2  0
 18 20  1  0
  1 21  1  0
  1 22  1  0
  1 23  1  0
  2 24  1  0
  2 25  1  0
  3 26  1  0
  3 27  1  0
  4 28  1  0
  4 29  1  0
  5 30  1  0
  5 31  1  0
  6 32  1  0
  7 33  1  0
  8 34  1  0
  8 35  1  0
  9 36  1  0
 10 37  1  0
 11 38  1  0
 11 39  1  0
 12 40  1  0
 12 41  1  0
 13 42  1  0
 13 43  1  0
 14 44  1  0
 14 45  1  0
 15 46  1  0
 15 47  1  0
 16 48  1  0
 16 49  1  0
 17 50  1  0
 17 51  1  0
M  CHG  1  20  -1
M  END
>  <meeko>  (13) 
{"is_sidechain": [false], "free_energy": -6.122, "intermolecular_energy": -11.344, "internal_energy": -1.768}

$$$$
linoleate_Clobe_run02
     RDKit          3D

 51 50  0  0  0  0  0  0  0  0999 V2000
   11.9530   33.0810   25.5870 C   0  0  0  0  0  0  0  0  0  0  0  0
   10.6090   32.7980   24.9340 C   0  0  0  0  0  0  0  0  0  0  0  0
   10.7250   32.1320   23.5610 C   0  0  0  0  0  0  0  0  0  0  0  0
    9.6640   32.6080   22.5640 C   0  0  0  0  0  0  0  0  0  0  0  0
    9.7820   31.8570   21.2320 C   0  0  0  0  0  0  0  0  0  0  0  0
   11.1690   31.6670   20.6810 C   0  0  0  0  0  0  0  0  0  0  0  0
   11.5200   31.5050   19.3950 C   0  0  0  0  0  0  0  0  0  0  0  0
   10.5330   31.4870   18.2620 C   0  0  0  0  0  0  0  0  0  0  0  0
   10.8160   32.5730   17.2680 C   0  0  0  0  0  0  0  0  0  0  0  0
    9.8900   33.0940   16.4490 C   0  0  0  0  0  0  0  0  0  0  0  0
    8.4540   32.6540   16.4280 C   0  0  0  0  0  0  0  0  0  0  0  0
    7.6010   33.3330   17.5060 C   0  0  0  0  0  0  0  0  0  0  0  0
    6.1110   33.3920   17.1520 C   0  0  0  0  0  0  0  0  0  0  0  0
    5.2510   32.4410   17.9910 C   0  0  0  0  0  0  0  0  0  0  0  0
    4.5280   31.3800   17.1560 C   0  0  0  0  0  0  0  0  0  0  0  0
    5.0420   29.9730   17.4850 C   0  0  0  0  0  0  0  0  0  0  0  0
    6.4240   29.7030   16.8920 C   0  0  0  0  0  0  0  0  0  0  0  0
    7.4850   29.4740   17.9410 C   0  0  0  0  0  0  0  0  0  0  0  0
    7.4580   29.8810   19.0930 O   0  0  0  0  0  0  0  0  0  0  0  0
    8.4870   28.7120   17.4330 O   0  0  0  0  0  0  0  0  0  0  0  0
   11.8413   33.0575   26.6811 H   0  0  0  0  0  0  0  0  0  0  0  0
   12.6800   32.3162   25.2761 H   0  0  0  0  0  0  0  0  0  0  0  0
   12.3099   34.0740   25.2761 H   0  0  0  0  0  0  0  0  0  0  0  0
   10.0336   32.1338   25.5956 H   0  0  0  0  0  0  0  0  0  0  0  0
   10.1128   33.7679   24.7820 H   0  0  0  0  0  0  0  0  0  0  0  0
   11.7189   32.3570   23.1469 H   0  0  0  0  0  0  0  0  0  0  0  0
   10.5716   31.0528   23.7089 H   0  0  0  0  0  0  0  0  0  0  0  0
    8.6654   32.4300   22.9896 H   0  0  0  0  0  0  0  0  0  0  0  0
    9.8180   33.6807   22.3753 H   0  0  0  0  0  0  0  0  0  0  0  0
    9.3400   30.8595   21.3721 H   0  0  0  0  0  0  0  0  0  0  0  0
    9.2647   32.4913   20.4971 H   0  0  0  0  0  0  0  0  0  0  0  0
   11.9885   31.6600   21.4148 H   0  0  0  0  0  0  0  0  0  0  0  0
   12.5868   31.3788   19.1583 H   0  0  0  0  0  0  0  0  0  0  0  0
   10.5907   30.5133   17.7534 H   0  0  0  0  0  0  0  0  0  0  0  0
    9.5282   31.6535   18.6776 H   0  0  0  0  0  0  0  0  0  0  0  0
   11.8419   32.9652   17.2067 H   0  0  0  0  0  0  0  0  0  0  0  0
   10.1998   33.8881   15.7537 H   0  0  0  0  0  0  0  0  0  0  0  0
    8.0287   32.8941   15.4424 H   0  0  0  0  0  0  0  0  0  0  0  0
    8.4392   31.5730   16.6308 H   0  0  0  0  0  0  0  0  0  0  0  0
    7.7147   32.7725   18.4456 H   0  0  0  0  0  0  0  0  0  0  0  0
    7.9557   34.3703   17.5967 H   0  0  0  0  0  0  0  0  0  0  0  0
    5.7541   34.4199   17.3135 H   0  0  0  0  0  0  0  0  0  0  0  0
    6.0128   33.0796   16.1019 H   0  0  0  0  0  0  0  0  0  0  0  0
    5.9015   31.9305   18.7164 H   0  0  0  0  0  0  0  0  0  0  0  0
    4.4782   33.0499   18.4830 H   0  0  0  0  0  0  0  0  0  0  0  0
    3.4501   31.4277   17.3700 H   0  0  0  0  0  0  0  0  0  0  0  0
    4.7206   31.5821   16.0920 H   0  0  0  0  0  0  0  0  0  0  0  0
    5.0996   29.8649   18.5782 H   0  0  0  0  0  0  0  0  0  0  0  0
    4.3411   29.2489   17.0441 H   0  0  0  0  0  0  0  0  0  0  0  0
    6.3628   28.8082   16.2551 H   0  0  0  0  0  0  0  0  0  0  0  0
    6.7156   30.5966   16.3207 H   0  0  0  0  0  0  0  0  0  0  0  0
  1  2  1  0
  2  3  1  0
  3  4  1  0
  4  5  1  0
  5  6  1  0
  6  7  2  0
  7  8  1  0
  8  9  1  0
  9 10  2  0
 10 11  1  0
 11 12  1  0
 12 13  1  0
 13 14  1  0
 14 15  1  0
 15 16  1  0
 16 17  1  0
 17 18  1  0
 18 19  2  0
 18 20  1  0
  1 21  1  0
  1 22  1  0
  1 23  1  0
  2 24  1  0
  2 25  1  0
  3 26  1  0
  3 27  1  0
  4 28  1  0
  4 29  1  0
  5 30  1  0
  5 31  1  0
  6 32  1  0
  7 33  1  0
  8 34  1  0
  8 35  1  0
  9 36  1  0
 10 37  1  0
 11 38  1  0
 11 39  1  0
 12 40  1  0
 12 41  1  0
 13 42  1  0
 13 43  1  0
 14 44  1  0
 14 45  1  0
 15 46  1  0
 15 47  1  0
 16 48  1  0
 16 49  1  0
 17 50  1  0
 17 51  1  0
M  CHG  1  20  -1
M  END
>  <meeko>  (14) 
{"is_sidechain": [false], "free_energy": -6.097, "intermolecular_energy": -11.639, "internal_energy": -1.428}

$$$$
linoleate_Clobe_run02
     RDKit          3D

 51 50  0  0  0  0  0  0  0  0999 V2000
    5.9040   29.7300   16.9110 C   0  0  0  0  0  0  0  0  0  0  0  0
    7.0820   30.6010   17.3220 C   0  0  0  0  0  0  0  0  0  0  0  0
    6.6760   32.0090   17.7650 C   0  0  0  0  0  0  0  0  0  0  0  0
    7.4090   33.1180   17.0060 C   0  0  0  0  0  0  0  0  0  0  0  0
    8.7440   32.6140   16.4430 C   0  0  0  0  0  0  0  0  0  0  0  0
    9.9940   33.2400   16.9990 C   0  0  0  0  0  0  0  0  0  0  0  0
   10.7630   32.7770   17.9980 C   0  0  0  0  0  0  0  0  0  0  0  0
   10.4730   31.5060   18.7460 C   0  0  0  0  0  0  0  0  0  0  0  0
    9.5190   31.7410   19.8790 C   0  0  0  0  0  0  0  0  0  0  0  0
    9.8760   31.7080   21.1720 C   0  0  0  0  0  0  0  0  0  0  0  0
   11.2750   31.4350   21.6450 C   0  0  0  0  0  0  0  0  0  0  0  0
   11.5910   32.0850   22.9970 C   0  0  0  0  0  0  0  0  0  0  0  0
   10.3460   32.3410   23.8520 C   0  0  0  0  0  0  0  0  0  0  0  0
   10.6660   32.9520   25.2210 C   0  0  0  0  0  0  0  0  0  0  0  0
   12.1520   32.8880   25.5810 C   0  0  0  0  0  0  0  0  0  0  0  0
   12.4050   33.4530   26.9840 C   0  0  0  0  0  0  0  0  0  0  0  0
   12.0900   34.9450   27.0780 C   0  0  0  0  0  0  0  0  0  0  0  0
   13.0410   35.6970   27.9780 C   0  0  0  0  0  0  0  0  0  0  0  0
   13.7410   36.6440   27.6550 O   0  0  0  0  0  0  0  0  0  0  0  0
   12.9930   35.1900   29.2360 O   0  0  0  0  0  0  0  0  0  0  0  0
    5.3949   29.3536   17.8105 H   0  0  0  0  0  0  0  0  0  0  0  0
    5.1988   30.3256   16.3127 H   0  0  0  0  0  0  0  0  0  0  0  0
    6.2667   28.8812   16.3127 H   0  0  0  0  0  0  0  0  0  0  0  0
    7.6032   30.1101   18.1571 H   0  0  0  0  0  0  0  0  0  0  0  0
    7.7252   30.7135   16.4368 H   0  0  0  0  0  0  0  0  0  0  0  0
    5.5951   32.1287   17.6000 H   0  0  0  0  0  0  0  0  0  0  0  0
    6.9469   32.1071   18.8266 H   0  0  0  0  0  0  0  0  0  0  0  0
    6.7763   33.4631   16.1750 H   0  0  0  0  0  0  0  0  0  0  0  0
    7.6140   33.9424   17.7048 H   0  0  0  0  0  0  0  0  0  0  0  0
    8.7994   31.5324   16.6357 H   0  0  0  0  0  0  0  0  0  0  0  0
    8.7313   32.8925   15.3789 H   0  0  0  0  0  0  0  0  0  0  0  0
   10.3145   34.1842   16.5345 H   0  0  0  0  0  0  0  0  0  0  0  0
   11.6519   33.3586   18.2838 H   0  0  0  0  0  0  0  0  0  0  0  0
   10.0311   30.7757   18.0522 H   0  0  0  0  0  0  0  0  0  0  0  0
   11.4179   31.1275   19.1631 H   0  0  0  0  0  0  0  0  0  0  0  0
    8.4671   31.9524   19.6363 H   0  0  0  0  0  0  0  0  0  0  0  0
    9.0993   31.8914   21.9291 H   0  0  0  0  0  0  0  0  0  0  0  0
   11.4061   30.3470   21.7406 H   0  0  0  0  0  0  0  0  0  0  0  0
   11.9621   31.8694   20.9039 H   0  0  0  0  0  0  0  0  0  0  0  0
   12.2668   31.4200   23.5547 H   0  0  0  0  0  0  0  0  0  0  0  0
   12.0501   33.0627   22.7890 H   0  0  0  0  0  0  0  0  0  0  0  0
    9.6844   33.0310   23.3077 H   0  0  0  0  0  0  0  0  0  0  0  0
    9.8693   31.3664   24.0335 H   0  0  0  0  0  0  0  0  0  0  0  0
   10.3537   34.0067   25.2140 H   0  0  0  0  0  0  0  0  0  0  0  0
   10.1229   32.3634   25.9750 H   0  0  0  0  0  0  0  0  0  0  0  0
   12.4842   31.8398   25.5505 H   0  0  0  0  0  0  0  0  0  0  0  0
   12.7139   33.4930   24.8542 H   0  0  0  0  0  0  0  0  0  0  0  0
   11.7707   32.9124   27.7019 H   0  0  0  0  0  0  0  0  0  0  0  0
   13.4734   33.3215   27.2103 H   0  0  0  0  0  0  0  0  0  0  0  0
   12.1467   35.3788   26.0687 H   0  0  0  0  0  0  0  0  0  0  0  0
   11.0838   35.0405   27.5122 H   0  0  0  0  0  0  0  0  0  0  0  0
  1  2  1  0
  2  3  1  0
  3  4  1  0
  4  5  1  0
  5  6  1  0
  6  7  2  0
  7  8  1  0
  8  9  1  0
  9 10  2  0
 10 11  1  0
 11 12  1  0
 12 13  1  0
 13 14  1  0
 14 15  1  0
 15 16  1  0
 16 17  1  0
 17 18  1  0
 18 19  2  0
 18 20  1  0
  1 21  1  0
  1 22  1  0
  1 23  1  0
  2 24  1  0
  2 25  1  0
  3 26  1  0
  3 27  1  0
  4 28  1  0
  4 29  1  0
  5 30  1  0
  5 31  1  0
  6 32  1  0
  7 33  1  0
  8 34  1  0
  8 35  1  0
  9 36  1  0
 10 37  1  0
 11 38  1  0
 11 39  1  0
 12 40  1  0
 12 41  1  0
 13 42  1  0
 13 43  1  0
 14 44  1  0
 14 45  1  0
 15 46  1  0
 15 47  1  0
 16 48  1  0
 16 49  1  0
 17 50  1  0
 17 51  1  0
M  CHG  1  20  -1
M  END
>  <meeko>  (15) 
{"is_sidechain": [false], "free_energy": -6.038, "intermolecular_energy": -11.616, "internal_energy": -1.343}

$$$$
linoleate_Clobe_run02
     RDKit          3D

 51 50  0  0  0  0  0  0  0  0999 V2000
   14.1650   33.1530   29.7230 C   0  0  0  0  0  0  0  0  0  0  0  0
   14.0790   34.4180   30.5630 C   0  0  0  0  0  0  0  0  0  0  0  0
   12.8160   35.2420   30.2990 C   0  0  0  0  0  0  0  0  0  0  0  0
   11.5830   34.3830   30.0030 C   0  0  0  0  0  0  0  0  0  0  0  0
   10.9020   34.8250   28.7020 C   0  0  0  0  0  0  0  0  0  0  0  0
   11.8040   35.2540   27.5760 C   0  0  0  0  0  0  0  0  0  0  0  0
   12.2210   34.5120   26.5380 C   0  0  0  0  0  0  0  0  0  0  0  0
   11.8340   33.0750   26.3380 C   0  0  0  0  0  0  0  0  0  0  0  0
   10.6550   32.9450   25.4190 C   0  0  0  0  0  0  0  0  0  0  0  0
   10.7470   32.5460   24.1410 C   0  0  0  0  0  0  0  0  0  0  0  0
   12.0410   32.1780   23.4730 C   0  0  0  0  0  0  0  0  0  0  0  0
   11.8490   31.5990   22.0670 C   0  0  0  0  0  0  0  0  0  0  0  0
   10.3950   31.2280   21.7570 C   0  0  0  0  0  0  0  0  0  0  0  0
    9.8780   31.8420   20.4510 C   0  0  0  0  0  0  0  0  0  0  0  0
    8.3690   32.1000   20.4590 C   0  0  0  0  0  0  0  0  0  0  0  0
    7.6630   31.2840   19.3690 C   0  0  0  0  0  0  0  0  0  0  0  0
    8.0790   31.7070   17.9610 C   0  0  0  0  0  0  0  0  0  0  0  0
    8.5190   30.5480   17.0990 C   0  0  0  0  0  0  0  0  0  0  0  0
    8.2820   30.4050   15.9100 O   0  0  0  0  0  0  0  0  0  0  0  0
    9.2580   29.6760   17.8310 O   0  0  0  0  0  0  0  0  0  0  0  0
   14.2246   32.2766   30.3851 H   0  0  0  0  0  0  0  0  0  0  0  0
   13.2702   33.0728   29.0882 H   0  0  0  0  0  0  0  0  0  0  0  0
   15.0624   33.1947   29.0882 H   0  0  0  0  0  0  0  0  0  0  0  0
   14.0925   34.1322   31.6251 H   0  0  0  0  0  0  0  0  0  0  0  0
   14.9388   35.0472   30.2892 H   0  0  0  0  0  0  0  0  0  0  0  0
   12.6082   35.8567   31.1872 H   0  0  0  0  0  0  0  0  0  0  0  0
   13.0078   35.8552   29.4061 H   0  0  0  0  0  0  0  0  0  0  0  0
   11.8920   33.3316   29.9076 H   0  0  0  0  0  0  0  0  0  0  0  0
   10.8675   34.5020   30.8299 H   0  0  0  0  0  0  0  0  0  0  0  0
   10.2962   33.9812   28.3401 H   0  0  0  0  0  0  0  0  0  0  0  0
   10.3271   35.7240   28.9689 H   0  0  0  0  0  0  0  0  0  0  0  0
   12.1621   36.2936   27.6072 H   0  0  0  0  0  0  0  0  0  0  0  0
   12.8814   34.9817   25.7942 H   0  0  0  0  0  0  0  0  0  0  0  0
   12.6868   32.5324   25.9041 H   0  0  0  0  0  0  0  0  0  0  0  0
   11.5574   32.6532   27.3155 H   0  0  0  0  0  0  0  0  0  0  0  0
    9.6587   33.1907   25.8153 H   0  0  0  0  0  0  0  0  0  0  0  0
    9.8220   32.4850   23.5489 H   0  0  0  0  0  0  0  0  0  0  0  0
   12.6650   33.0807   23.3975 H   0  0  0  0  0  0  0  0  0  0  0  0
   12.5164   31.3984   24.0864 H   0  0  0  0  0  0  0  0  0  0  0  0
   12.1824   32.3473   21.3329 H   0  0  0  0  0  0  0  0  0  0  0  0
   12.4399   30.6728   22.0129 H   0  0  0  0  0  0  0  0  0  0  0  0
   10.3227   30.1330   21.6807 H   0  0  0  0  0  0  0  0  0  0  0  0
    9.7754   31.6284   22.5730 H   0  0  0  0  0  0  0  0  0  0  0  0
   10.3950   32.7989   20.2864 H   0  0  0  0  0  0  0  0  0  0  0  0
   10.0805   31.1180   19.6480 H   0  0  0  0  0  0  0  0  0  0  0  0
    7.9614   31.8166   21.4406 H   0  0  0  0  0  0  0  0  0  0  0  0
    8.1964   33.1684   20.2623 H   0  0  0  0  0  0  0  0  0  0  0  0
    7.9122   30.2214   19.5064 H   0  0  0  0  0  0  0  0  0  0  0  0
    6.5817   31.4611   19.4659 H   0  0  0  0  0  0  0  0  0  0  0  0
    7.2227   32.1985   17.4760 H   0  0  0  0  0  0  0  0  0  0  0  0
    8.9396   32.3844   18.0633 H   0  0  0  0  0  0  0  0  0  0  0  0
  1  2  1  0
  2  3  1  0
  3  4  1  0
  4  5  1  0
  5  6  1  0
  6  7  2  0
  7  8  1  0
  8  9  1  0
  9 10  2  0
 10 11  1  0
 11 12  1  0
 12 13  1  0
 13 14  1  0
 14 15  1  0
 15 16  1  0
 16 17  1  0
 17 18  1  0
 18 19  2  0
 18 20  1  0
  1 21  1  0
  1 22  1  0
  1 23  1  0
  2 24  1  0
  2 25  1  0
  3 26  1  0
  3 27  1  0
  4 28  1  0
  4 29  1  0
  5 30  1  0
  5 31  1  0
  6 32  1  0
  7 33  1  0
  8 34  1  0
  8 35  1  0
  9 36  1  0
 10 37  1  0
 11 38  1  0
 11 39  1  0
 12 40  1  0
 12 41  1  0
 13 42  1  0
 13 43  1  0
 14 44  1  0
 14 45  1  0
 15 46  1  0
 15 47  1  0
 16 48  1  0
 16 49  1  0
 17 50  1  0
 17 51  1  0
M  CHG  1  20  -1
M  END
>  <meeko>  (16) 
{"is_sidechain": [false], "free_energy": -6.018, "intermolecular_energy": -11.583, "internal_energy": -1.34}

$$$$
linoleate_Clobe_run02
     RDKit          3D

 51 50  0  0  0  0  0  0  0  0999 V2000
   11.4000   34.8230   29.7800 C   0  0  0  0  0  0  0  0  0  0  0  0
   12.5770   35.3630   28.9820 C   0  0  0  0  0  0  0  0  0  0  0  0
   12.3160   35.4290   27.4760 C   0  0  0  0  0  0  0  0  0  0  0  0
   10.8600   35.1390   27.1000 C   0  0  0  0  0  0  0  0  0  0  0  0
   10.7610   33.9210   26.1730 C   0  0  0  0  0  0  0  0  0  0  0  0
   12.0430   33.1930   25.8700 C   0  0  0  0  0  0  0  0  0  0  0  0
   12.3140   32.4310   24.7980 C   0  0  0  0  0  0  0  0  0  0  0  0
   11.3300   32.1780   23.6910 C   0  0  0  0  0  0  0  0  0  0  0  0
   12.0190   31.7350   22.4340 C   0  0  0  0  0  0  0  0  0  0  0  0
   11.3740   31.4480   21.2930 C   0  0  0  0  0  0  0  0  0  0  0  0
    9.8830   31.5360   21.1330 C   0  0  0  0  0  0  0  0  0  0  0  0
    9.4310   31.4740   19.6700 C   0  0  0  0  0  0  0  0  0  0  0  0
    8.2280   32.3750   19.3680 C   0  0  0  0  0  0  0  0  0  0  0  0
    6.9090   31.8330   19.9270 C   0  0  0  0  0  0  0  0  0  0  0  0
    5.8030   31.7220   18.8740 C   0  0  0  0  0  0  0  0  0  0  0  0
    5.5590   30.2610   18.4800 C   0  0  0  0  0  0  0  0  0  0  0  0
    5.9770   29.9670   17.0400 C   0  0  0  0  0  0  0  0  0  0  0  0
    7.4580   29.7150   16.8920 C   0  0  0  0  0  0  0  0  0  0  0  0
    8.1980   30.2340   16.0710 O   0  0  0  0  0  0  0  0  0  0  0  0
    7.8790   28.8360   17.8370 O   0  0  0  0  0  0  0  0  0  0  0  0
   11.6108   34.9197   30.8553 H   0  0  0  0  0  0  0  0  0  0  0  0
   10.4945   35.3957   29.5309 H   0  0  0  0  0  0  0  0  0  0  0  0
   11.2435   33.7631   29.5309 H   0  0  0  0  0  0  0  0  0  0  0  0
   12.8042   36.3778   29.3406 H   0  0  0  0  0  0  0  0  0  0  0  0
   13.4163   34.6684   29.1342 H   0  0  0  0  0  0  0  0  0  0  0  0
   12.5740   36.4376   27.1209 H   0  0  0  0  0  0  0  0  0  0  0  0
   12.9353   34.6521   27.0038 H   0  0  0  0  0  0  0  0  0  0  0  0
   10.2850   34.9406   28.0165 H   0  0  0  0  0  0  0  0  0  0  0  0
   10.4548   36.0143   26.5712 H   0  0  0  0  0  0  0  0  0  0  0  0
   10.0725   33.2019   26.6407 H   0  0  0  0  0  0  0  0  0  0  0  0
   10.4221   34.3217   25.2063 H   0  0  0  0  0  0  0  0  0  0  0  0
   12.8495   33.2969   26.6108 H   0  0  0  0  0  0  0  0  0  0  0  0
   13.3090   31.9675   24.7265 H   0  0  0  0  0  0  0  0  0  0  0  0
   10.6277   31.3935   24.0093 H   0  0  0  0  0  0  0  0  0  0  0  0
   10.7980   33.1175   23.4804 H   0  0  0  0  0  0  0  0  0  0  0  0
   13.1148   31.6401   22.4487 H   0  0  0  0  0  0  0  0  0  0  0  0
   11.9710   31.1302   20.4255 H   0  0  0  0  0  0  0  0  0  0  0  0
    9.4224   30.6986   21.6776 H   0  0  0  0  0  0  0  0  0  0  0  0
    9.5670   32.5107   21.5330 H   0  0  0  0  0  0  0  0  0  0  0  0
   10.2705   31.7869   19.0317 H   0  0  0  0  0  0  0  0  0  0  0  0
    9.1207   30.4381   19.4686 H   0  0  0  0  0  0  0  0  0  0  0  0
    8.4138   33.3651   19.8099 H   0  0  0  0  0  0  0  0  0  0  0  0
    8.1231   32.4222   18.2740 H   0  0  0  0  0  0  0  0  0  0  0  0
    7.0927   30.8329   20.3466 H   0  0  0  0  0  0  0  0  0  0  0  0
    6.5617   32.5460   20.6893 H   0  0  0  0  0  0  0  0  0  0  0  0
    4.8733   32.1433   19.2841 H   0  0  0  0  0  0  0  0  0  0  0  0
    6.1176   32.2771   17.9779 H   0  0  0  0  0  0  0  0  0  0  0  0
    6.1368   29.6122   19.1547 H   0  0  0  0  0  0  0  0  0  0  0  0
    4.4791   30.0683   18.5611 H   0  0  0  0  0  0  0  0  0  0  0  0
    5.4340   29.0755   16.6931 H   0  0  0  0  0  0  0  0  0  0  0  0
    5.7346   30.8568   16.4404 H   0  0  0  0  0  0  0  0  0  0  0  0
  1  2  1  0
  2  3  1  0
  3  4  1  0
  4  5  1  0
  5  6  1  0
  6  7  2  0
  7  8  1  0
  8  9  1  0
  9 10  2  0
 10 11  1  0
 11 12  1  0
 12 13  1  0
 13 14  1  0
 14 15  1  0
 15 16  1  0
 16 17  1  0
 17 18  1  0
 18 19  2  0
 18 20  1  0
  1 21  1  0
  1 22  1  0
  1 23  1  0
  2 24  1  0
  2 25  1  0
  3 26  1  0
  3 27  1  0
  4 28  1  0
  4 29  1  0
  5 30  1  0
  5 31  1  0
  6 32  1  0
  7 33  1  0
  8 34  1  0
  8 35  1  0
  9 36  1  0
 10 37  1  0
 11 38  1  0
 11 39  1  0
 12 40  1  0
 12 41  1  0
 13 42  1  0
 13 43  1  0
 14 44  1  0
 14 45  1  0
 15 46  1  0
 15 47  1  0
 16 48  1  0
 16 49  1  0
 17 50  1  0
 17 51  1  0
M  CHG  1  20  -1
M  END
>  <meeko>  (17) 
{"is_sidechain": [false], "free_energy": -6.003, "intermolecular_energy": -11.77, "internal_energy": -1.125}

$$$$
linoleate_Clobe_run02
     RDKit          3D

 51 50  0  0  0  0  0  0  0  0999 V2000
   13.4570   33.4960   29.3620 C   0  0  0  0  0  0  0  0  0  0  0  0
   13.0790   34.9460   29.0990 C   0  0  0  0  0  0  0  0  0  0  0  0
   12.7810   35.2430   27.6280 C   0  0  0  0  0  0  0  0  0  0  0  0
   11.2930   35.1460   27.2790 C   0  0  0  0  0  0  0  0  0  0  0  0
   11.0300   34.0020   26.2930 C   0  0  0  0  0  0  0  0  0  0  0  0
   12.2360   33.2840   25.7500 C   0  0  0  0  0  0  0  0  0  0  0  0
   12.2900   32.4790   24.6760 C   0  0  0  0  0  0  0  0  0  0  0  0
   11.0990   32.1590   23.8190 C   0  0  0  0  0  0  0  0  0  0  0  0
   11.5110   31.7490   22.4360 C   0  0  0  0  0  0  0  0  0  0  0  0
   10.6900   31.7730   21.3750 C   0  0  0  0  0  0  0  0  0  0  0  0
    9.2560   32.2170   21.4420 C   0  0  0  0  0  0  0  0  0  0  0  0
    8.3850   31.6020   20.3400 C   0  0  0  0  0  0  0  0  0  0  0  0
    8.8160   32.0110   18.9270 C   0  0  0  0  0  0  0  0  0  0  0  0
    9.3520   30.8420   18.0950 C   0  0  0  0  0  0  0  0  0  0  0  0
    8.4380   30.4580   16.9290 C   0  0  0  0  0  0  0  0  0  0  0  0
    7.3940   29.4220   17.3620 C   0  0  0  0  0  0  0  0  0  0  0  0
    5.9630   29.9050   17.1330 C   0  0  0  0  0  0  0  0  0  0  0  0
    5.4330   30.7480   18.2680 C   0  0  0  0  0  0  0  0  0  0  0  0
    5.1460   30.3500   19.3870 O   0  0  0  0  0  0  0  0  0  0  0  0
    5.3420   32.0460   17.8830 O   0  0  0  0  0  0  0  0  0  0  0  0
   13.5029   33.3200   30.4469 H   0  0  0  0  0  0  0  0  0  0  0  0
   12.7016   32.8332   28.9146 H   0  0  0  0  0  0  0  0  0  0  0  0
   14.4398   33.2864   28.9146 H   0  0  0  0  0  0  0  0  0  0  0  0
   12.1829   35.1848   29.6907 H   0  0  0  0  0  0  0  0  0  0  0  0
   13.9444   35.5623   29.3841 H   0  0  0  0  0  0  0  0  0  0  0  0
   13.1271   36.2621   27.4007 H   0  0  0  0  0  0  0  0  0  0  0  0
   13.3058   34.4835   27.0298 H   0  0  0  0  0  0  0  0  0  0  0  0
   10.7192   34.9654   28.1999 H   0  0  0  0  0  0  0  0  0  0  0  0
   10.9825   36.0906   26.8085 H   0  0  0  0  0  0  0  0  0  0  0  0
   10.4027   33.2581   26.8059 H   0  0  0  0  0  0  0  0  0  0  0  0
   10.5601   34.4771   25.4193 H   0  0  0  0  0  0  0  0  0  0  0  0
   13.1799   33.4355   26.2941 H   0  0  0  0  0  0  0  0  0  0  0  0
   13.2584   32.0302   24.4100 H   0  0  0  0  0  0  0  0  0  0  0  0
   10.5357   31.3359   24.2829 H   0  0  0  0  0  0  0  0  0  0  0  0
   10.4776   33.0633   23.7402 H   0  0  0  0  0  0  0  0  0  0  0  0
   12.5459   31.4091   22.2829 H   0  0  0  0  0  0  0  0  0  0  0  0
   11.0888   31.4497   20.4021 H   0  0  0  0  0  0  0  0  0  0  0  0
    8.8438   31.9239   22.4188 H   0  0  0  0  0  0  0  0  0  0  0  0
    9.2429   33.3078   21.3007 H   0  0  0  0  0  0  0  0  0  0  0  0
    8.4435   30.5064   20.4194 H   0  0  0  0  0  0  0  0  0  0  0  0
    7.3607   31.9744   20.4886 H   0  0  0  0  0  0  0  0  0  0  0  0
    7.9466   32.4398   18.4072 H   0  0  0  0  0  0  0  0  0  0  0  0
    9.6350   32.7376   19.0336 H   0  0  0  0  0  0  0  0  0  0  0  0
   10.3349   31.1240   17.6896 H   0  0  0  0  0  0  0  0  0  0  0  0
    9.4128   29.9692   18.7617 H   0  0  0  0  0  0  0  0  0  0  0  0
    7.9210   31.3587   16.5664 H   0  0  0  0  0  0  0  0  0  0  0  0
    9.0556   30.0185   16.1319 H   0  0  0  0  0  0  0  0  0  0  0  0
    7.5518   28.4991   16.7846 H   0  0  0  0  0  0  0  0  0  0  0  0
    7.5207   29.2496   18.4410 H   0  0  0  0  0  0  0  0  0  0  0  0
    5.9393   30.5046   16.2111 H   0  0  0  0  0  0  0  0  0  0  0  0
    5.3235   29.0129   17.0610 H   0  0  0  0  0  0  0  0  0  0  0  0
  1  2  1  0
  2  3  1  0
  3  4  1  0
  4  5  1  0
  5  6  1  0
  6  7  2  0
  7  8  1  0
  8  9  1  0
  9 10  2  0
 10 11  1  0
 11 12  1  0
 12 13  1  0
 13 14  1  0
 14 15  1  0
 15 16  1  0
 16 17  1  0
 17 18  1  0
 18 19  2  0
 18 20  1  0
  1 21  1  0
  1 22  1  0
  1 23  1  0
  2 24  1  0
  2 25  1  0
  3 26  1  0
  3 27  1  0
  4 28  1  0
  4 29  1  0
  5 30  1  0
  5 31  1  0
  6 32  1  0
  7 33  1  0
  8 34  1  0
  8 35  1  0
  9 36  1  0
 10 37  1  0
 11 38  1  0
 11 39  1  0
 12 40  1  0
 12 41  1  0
 13 42  1  0
 13 43  1  0
 14 44  1  0
 14 45  1  0
 15 46  1  0
 15 47  1  0
 16 48  1  0
 16 49  1  0
 17 50  1  0
 17 51  1  0
M  CHG  1  20  -1
M  END
>  <meeko>  (18) 
{"is_sidechain": [false], "free_energy": -5.928, "intermolecular_energy": -11.552, "internal_energy": -1.209}

$$$$
linoleate_Clobe_run02
     RDKit          3D

 51 50  0  0  0  0  0  0  0  0999 V2000
    5.7350   29.8570   17.0190 C   0  0  0  0  0  0  0  0  0  0  0  0
    7.2300   29.5780   17.0250 C   0  0  0  0  0  0  0  0  0  0  0  0
    8.0860   30.8330   16.8440 C   0  0  0  0  0  0  0  0  0  0  0  0
    7.7680   31.9370   17.8580 C   0  0  0  0  0  0  0  0  0  0  0  0
    8.5250   31.7140   19.1730 C   0  0  0  0  0  0  0  0  0  0  0  0
   10.0280   31.7090   19.0980 C   0  0  0  0  0  0  0  0  0  0  0  0
   10.8950   31.6770   20.1220 C   0  0  0  0  0  0  0  0  0  0  0  0
   10.4740   31.6430   21.5640 C   0  0  0  0  0  0  0  0  0  0  0  0
   11.6510   31.7830   22.4840 C   0  0  0  0  0  0  0  0  0  0  0  0
   11.5590   32.2220   23.7490 C   0  0  0  0  0  0  0  0  0  0  0  0
   10.2670   32.6250   24.4000 C   0  0  0  0  0  0  0  0  0  0  0  0
   10.4650   33.2950   25.7650 C   0  0  0  0  0  0  0  0  0  0  0  0
   11.8910   33.1530   26.3090 C   0  0  0  0  0  0  0  0  0  0  0  0
   12.5230   34.4910   26.7070 C   0  0  0  0  0  0  0  0  0  0  0  0
   12.0090   35.0300   28.0450 C   0  0  0  0  0  0  0  0  0  0  0  0
   11.7550   33.8910   29.0390 C   0  0  0  0  0  0  0  0  0  0  0  0
   12.3840   34.1590   30.4060 C   0  0  0  0  0  0  0  0  0  0  0  0
   13.8550   33.8230   30.4580 C   0  0  0  0  0  0  0  0  0  0  0  0
   14.3970   32.8760   29.9100 O   0  0  0  0  0  0  0  0  0  0  0  0
   14.5210   34.7540   31.1880 O   0  0  0  0  0  0  0  0  0  0  0  0
    5.3705   29.9250   18.0546 H   0  0  0  0  0  0  0  0  0  0  0  0
    5.5413   30.8068   16.4990 H   0  0  0  0  0  0  0  0  0  0  0  0
    5.2118   29.0410   16.4990 H   0  0  0  0  0  0  0  0  0  0  0  0
    7.4934   29.1126   17.9863 H   0  0  0  0  0  0  0  0  0  0  0  0
    7.4392   28.9178   16.1704 H   0  0  0  0  0  0  0  0  0  0  0  0
    9.1439   30.5525   16.9540 H   0  0  0  0  0  0  0  0  0  0  0  0
    7.8649   31.2360   15.8446 H   0  0  0  0  0  0  0  0  0  0  0  0
    8.0618   32.9089   17.4348 H   0  0  0  0  0  0  0  0  0  0  0  0
    6.6886   31.9173   18.0687 H   0  0  0  0  0  0  0  0  0  0  0  0
    8.2291   32.5143   19.8672 H   0  0  0  0  0  0  0  0  0  0  0  0
    8.2494   30.6990   19.4953 H   0  0  0  0  0  0  0  0  0  0  0  0
   10.4658   31.7345   18.0892 H   0  0  0  0  0  0  0  0  0  0  0  0
   11.9710   31.6756   19.8935 H   0  0  0  0  0  0  0  0  0  0  0  0
    9.7735   32.4701   21.7514 H   0  0  0  0  0  0  0  0  0  0  0  0
    9.9955   30.6723   21.7610 H   0  0  0  0  0  0  0  0  0  0  0  0
   12.6452   31.5105   22.1001 H   0  0  0  0  0  0  0  0  0  0  0  0
   12.4825   32.2905   24.3427 H   0  0  0  0  0  0  0  0  0  0  0  0
    9.7455   33.3302   23.7362 H   0  0  0  0  0  0  0  0  0  0  0  0
    9.6832   31.7077   24.5663 H   0  0  0  0  0  0  0  0  0  0  0  0
   10.2345   34.3659   25.6650 H   0  0  0  0  0  0  0  0  0  0  0  0
    9.7935   32.7911   26.4757 H   0  0  0  0  0  0  0  0  0  0  0  0
   11.8635   32.5023   27.1954 H   0  0  0  0  0  0  0  0  0  0  0  0
   12.5070   32.7284   25.5026 H   0  0  0  0  0  0  0  0  0  0  0  0
   13.6120   34.3544   26.7809 H   0  0  0  0  0  0  0  0  0  0  0  0
   12.2484   35.2236   25.9338 H   0  0  0  0  0  0  0  0  0  0  0  0
   12.7585   35.7152   28.4679 H   0  0  0  0  0  0  0  0  0  0  0  0
   11.0596   35.5565   27.8676 H   0  0  0  0  0  0  0  0  0  0  0  0
   10.6693   33.7699   29.1674 H   0  0  0  0  0  0  0  0  0  0  0  0
   12.2168   32.9802   28.6303 H   0  0  0  0  0  0  0  0  0  0  0  0
   12.2600   35.2255   30.6453 H   0  0  0  0  0  0  0  0  0  0  0  0
   11.8740   33.5111   31.1341 H   0  0  0  0  0  0  0  0  0  0  0  0
  1  2  1  0
  2  3  1  0
  3  4  1  0
  4  5  1  0
  5  6  1  0
  6  7  2  0
  7  8  1  0
  8  9  1  0
  9 10  2  0
 10 11  1  0
 11 12  1  0
 12 13  1  0
 13 14  1  0
 14 15  1  0
 15 16  1  0
 16 17  1  0
 17 18  1  0
 18 19  2  0
 18 20  1  0
  1 21  1  0
  1 22  1  0
  1 23  1  0
  2 24  1  0
  2 25  1  0
  3 26  1  0
  3 27  1  0
  4 28  1  0
  4 29  1  0
  5 30  1  0
  5 31  1  0
  6 32  1  0
  7 33  1  0
  8 34  1  0
  8 35  1  0
  9 36  1  0
 10 37  1  0
 11 38  1  0
 11 39  1  0
 12 40  1  0
 12 41  1  0
 13 42  1  0
 13 43  1  0
 14 44  1  0
 14 45  1  0
 15 46  1  0
 15 47  1  0
 16 48  1  0
 16 49  1  0
 17 50  1  0
 17 51  1  0
M  CHG  1  20  -1
M  END
>  <meeko>  (19) 
{"is_sidechain": [false], "free_energy": -5.912, "intermolecular_energy": -11.853, "internal_energy": -0.878}

$$$$
linoleate_Clobe_run02
     RDKit          3D

 51 50  0  0  0  0  0  0  0  0999 V2000
    4.4250   32.6200   17.3280 C   0  0  0  0  0  0  0  0  0  0  0  0
    5.3450   32.0490   18.3960 C   0  0  0  0  0  0  0  0  0  0  0  0
    5.5160   30.5310   18.3060 C   0  0  0  0  0  0  0  0  0  0  0  0
    6.9410   30.0620   18.6120 C   0  0  0  0  0  0  0  0  0  0  0  0
    7.7130   31.1220   19.4070 C   0  0  0  0  0  0  0  0  0  0  0  0
    9.0960   31.4620   18.9190 C   0  0  0  0  0  0  0  0  0  0  0  0
   10.2010   31.6370   19.6610 C   0  0  0  0  0  0  0  0  0  0  0  0
   10.2230   31.5160   21.1580 C   0  0  0  0  0  0  0  0  0  0  0  0
   11.6260   31.5090   21.6890 C   0  0  0  0  0  0  0  0  0  0  0  0
   11.9450   31.8190   22.9550 C   0  0  0  0  0  0  0  0  0  0  0  0
   10.9370   32.2090   23.9970 C   0  0  0  0  0  0  0  0  0  0  0  0
   11.5600   32.9320   25.1970 C   0  0  0  0  0  0  0  0  0  0  0  0
   10.5210   33.4960   26.1720 C   0  0  0  0  0  0  0  0  0  0  0  0
   10.7490   34.9720   26.5140 C   0  0  0  0  0  0  0  0  0  0  0  0
   12.0140   35.2160   27.3400 C   0  0  0  0  0  0  0  0  0  0  0  0
   11.9180   34.5360   28.7110 C   0  0  0  0  0  0  0  0  0  0  0  0
   13.1190   33.6370   29.0020 C   0  0  0  0  0  0  0  0  0  0  0  0
   13.8690   34.0330   30.2510 C   0  0  0  0  0  0  0  0  0  0  0  0
   15.0220   34.4320   30.3020 O   0  0  0  0  0  0  0  0  0  0  0  0
   13.0630   33.9120   31.3370 O   0  0  0  0  0  0  0  0  0  0  0  0
    3.5844   33.1417   17.8089 H   0  0  0  0  0  0  0  0  0  0  0  0
    4.9862   33.3288   16.7013 H   0  0  0  0  0  0  0  0  0  0  0  0
    4.0390   31.8025   16.7013 H   0  0  0  0  0  0  0  0  0  0  0  0
    6.3345   32.5178   18.2901 H   0  0  0  0  0  0  0  0  0  0  0  0
    4.8831   32.2655   19.3706 H   0  0  0  0  0  0  0  0  0  0  0  0
    4.8312   30.0594   19.0261 H   0  0  0  0  0  0  0  0  0  0  0  0
    5.2930   30.2393   17.2691 H   0  0  0  0  0  0  0  0  0  0  0  0
    6.8950   29.1341   19.2010 H   0  0  0  0  0  0  0  0  0  0  0  0
    7.4641   29.8902   17.6597 H   0  0  0  0  0  0  0  0  0  0  0  0
    7.1182   32.0472   19.3930 H   0  0  0  0  0  0  0  0  0  0  0  0
    7.8594   30.6835   20.4051 H   0  0  0  0  0  0  0  0  0  0  0  0
    9.2145   31.5804   17.8318 H   0  0  0  0  0  0  0  0  0  0  0  0
   11.1409   31.8822   19.1449 H   0  0  0  0  0  0  0  0  0  0  0  0
    9.6804   32.3681   21.5934 H   0  0  0  0  0  0  0  0  0  0  0  0
    9.7450   30.5646   21.4342 H   0  0  0  0  0  0  0  0  0  0  0  0
   12.4395   31.2341   21.0015 H   0  0  0  0  0  0  0  0  0  0  0  0
   13.0053   31.7855   23.2459 H   0  0  0  0  0  0  0  0  0  0  0  0
   10.1948   32.8756   23.5336 H   0  0  0  0  0  0  0  0  0  0  0  0
   10.4802   31.2821   24.3741 H   0  0  0  0  0  0  0  0  0  0  0  0
   12.1983   32.2199   25.7406 H   0  0  0  0  0  0  0  0  0  0  0  0
   12.1323   33.7844   24.8022 H   0  0  0  0  0  0  0  0  0  0  0  0
    9.5243   33.3927   25.7183 H   0  0  0  0  0  0  0  0  0  0  0  0
   10.6110   32.9269   27.1090 H   0  0  0  0  0  0  0  0  0  0  0  0
   10.8310   35.5389   25.5749 H   0  0  0  0  0  0  0  0  0  0  0  0
    9.8945   35.2997   27.1242 H   0  0  0  0  0  0  0  0  0  0  0  0
   12.8809   34.8104   26.7978 H   0  0  0  0  0  0  0  0  0  0  0  0
   12.1268   36.2992   27.4945 H   0  0  0  0  0  0  0  0  0  0  0  0
   11.8624   35.3132   29.4875 H   0  0  0  0  0  0  0  0  0  0  0  0
   11.0185   33.9028   28.7085 H   0  0  0  0  0  0  0  0  0  0  0  0
   12.7614   32.6036   29.1217 H   0  0  0  0  0  0  0  0  0  0  0  0
   13.8154   33.7377   28.1565 H   0  0  0  0  0  0  0  0  0  0  0  0
  1  2  1  0
  2  3  1  0
  3  4  1  0
  4  5  1  0
  5  6  1  0
  6  7  2  0
  7  8  1  0
  8  9  1  0
  9 10  2  0
 10 11  1  0
 11 12  1  0
 12 13  1  0
 13 14  1  0
 14 15  1  0
 15 16  1  0
 16 17  1  0
 17 18  1  0
 18 19  2  0
 18 20  1  0
  1 21  1  0
  1 22  1  0
  1 23  1  0
  2 24  1  0
  2 25  1  0
  3 26  1  0
  3 27  1  0
  4 28  1  0
  4 29  1  0
  5 30  1  0
  5 31  1  0
  6 32  1  0
  7 33  1  0
  8 34  1  0
  8 35  1  0
  9 36  1  0
 10 37  1  0
 11 38  1  0
 11 39  1  0
 12 40  1  0
 12 41  1  0
 13 42  1  0
 13 43  1  0
 14 44  1  0
 14 45  1  0
 15 46  1  0
 15 47  1  0
 16 48  1  0
 16 49  1  0
 17 50  1  0
 17 51  1  0
M  CHG  1  20  -1
M  END
>  <meeko>  (20) 
{"is_sidechain": [false], "free_energy": -5.851, "intermolecular_energy": -11.838, "internal_energy": -0.782}

$$$$
