palmitate_Clobe_run02
     RDKit          3D

 49 48  0  0  0  0  0  0  0  0999 V2000
    7.9560   33.0960   17.4980 C   0  0  0  0  0  0  0  0  0  0  0  0
    9.0800   32.6790   18.4330 C   0  0  0  0  0  0  0  0  0  0  0  0
    9.1510   31.1680   18.6730 C   0  0  0  0  0  0  0  0  0  0  0  0
    8.9690   30.3430   17.3950 C   0  0  0  0  0  0  0  0  0  0  0  0
    7.8480   29.3010   17.4930 C   0  0  0  0  0  0  0  0  0  0  0  0
    6.6160   29.5570   16.6210 C   0  0  0  0  0  0  0  0  0  0  0  0
    5.5170   30.3480   17.3330 C   0  0  0  0  0  0  0  0  0  0  0  0
    5.6110   30.1830   18.8520 C   0  0  0  0  0  0  0  0  0  0  0  0
    5.2030   31.4710   19.5700 C   0  0  0  0  0  0  0  0  0  0  0  0
    6.1920   31.9090   20.6550 C   0  0  0  0  0  0  0  0  0  0  0  0
    5.5740   32.5260   21.9150 C   0  0  0  0  0  0  0  0  0  0  0  0
    6.5750   33.3110   22.7670 C   0  0  0  0  0  0  0  0  0  0  0  0
    7.9140   33.4730   22.0450 C   0  0  0  0  0  0  0  0  0  0  0  0
    9.1320   33.2010   22.9360 C   0  0  0  0  0  0  0  0  0  0  0  0
   10.2200   32.3510   22.2810 C   0  0  0  0  0  0  0  0  0  0  0  0
   11.4230   32.0950   23.1550 C   0  0  0  0  0  0  0  0  0  0  0  0
   12.5230   31.7730   22.7260 O   0  0  0  0  0  0  0  0  0  0  0  0
   11.1500   32.2250   24.4770 O   0  0  0  0  0  0  0  0  0  0  0  0
    7.0870   33.4184   18.0903 H   0  0  0  0  0  0  0  0  0  0  0  0
    8.2963   33.9277   16.8636 H   0  0  0  0  0  0  0  0  0  0  0  0
    7.6715   32.2436   16.8636 H   0  0  0  0  0  0  0  0  0  0  0  0
   10.0349   33.0067   17.9963 H   0  0  0  0  0  0  0  0  0  0  0  0
    8.8806   33.1506   19.4066 H   0  0  0  0  0  0  0  0  0  0  0  0
   10.1335   30.9289   19.1061 H   0  0  0  0  0  0  0  0  0  0  0  0
    8.3249   30.9062   19.3506 H   0  0  0  0  0  0  0  0  0  0  0  0
    8.7347   31.0295   16.5680 H   0  0  0  0  0  0  0  0  0  0  0  0
    9.9073   29.7936   17.2286 H   0  0  0  0  0  0  0  0  0  0  0  0
    8.2682   28.3263   17.2041 H   0  0  0  0  0  0  0  0  0  0  0  0
    7.4905   29.3467   18.5323 H   0  0  0  0  0  0  0  0  0  0  0  0
    6.9307   30.1221   15.7313 H   0  0  0  0  0  0  0  0  0  0  0  0
    6.1924   28.5749   16.3638 H   0  0  0  0  0  0  0  0  0  0  0  0
    5.6212   31.4136   17.0808 H   0  0  0  0  0  0  0  0  0  0  0  0
    4.5411   29.9642   17.0009 H   0  0  0  0  0  0  0  0  0  0  0  0
    4.9426   29.3682   19.1673 H   0  0  0  0  0  0  0  0  0  0  0  0
    6.6534   29.9503   19.1153 H   0  0  0  0  0  0  0  0  0  0  0  0
    5.1267   32.2757   18.8239 H   0  0  0  0  0  0  0  0  0  0  0  0
    4.2438   31.2712   20.0700 H   0  0  0  0  0  0  0  0  0  0  0  0
    6.7696   31.0244   20.9614 H   0  0  0  0  0  0  0  0  0  0  0  0
    6.7988   32.7059   20.2003 H   0  0  0  0  0  0  0  0  0  0  0  0
    4.7677   33.2085   21.6085 H   0  0  0  0  0  0  0  0  0  0  0  0
    5.2055   31.6947   22.5340 H   0  0  0  0  0  0  0  0  0  0  0  0
    6.1602   34.3072   22.9801 H   0  0  0  0  0  0  0  0  0  0  0  0
    6.7489   32.7538   23.6993 H   0  0  0  0  0  0  0  0  0  0  0  0
    7.9393   32.7709   21.1986 H   0  0  0  0  0  0  0  0  0  0  0  0
    7.9800   34.5225   21.7221 H   0  0  0  0  0  0  0  0  0  0  0  0
    9.5745   34.1680   23.2174 H   0  0  0  0  0  0  0  0  0  0  0  0
    8.7653   32.6276   23.8001 H   0  0  0  0  0  0  0  0  0  0  0  0
    9.7804   31.3803   22.0082 H   0  0  0  0  0  0  0  0  0  0  0  0
   10.5801   32.9191   21.4106 H   0  0  0  0  0  0  0  0  0  0  0  0
  1  2  1  0
  2  3  1  0
  3  4  1  0
  4  5  1  0
  5  6  1  0
  6  7  1  0
  7  8  1  0
  8  9  1  0
  9 10  1  0
 10 11  1  0
 11 12  1  0
 12 13  1  0
 13 14  1  0
 14 15  1  0
 15 16  1  0
 16 17  2  0
 16 18  1  0
  1 19  1  0
  1 20  1  0
  1 21  1  0
  2 22  1  0
  2 23  1  0
  3 24  1  0
  3 25  1  0
  4 26  1  0
  4 27  1  0
  5 28  1  0
  5 29  1  0
  6 30  1  0
  6 31  1  0
  7 32  1  0
  7 33  1  0
  8 34  1  0
  8 35  1  0
  9 36  1  0
  9 37  1  0
 10 38  1  0
 10 39  1  0
 11 40  1  0
 11 41  1  0
 12 42  1  0
 12 43  1  0
 13 44  1  0
 13 45  1  0
 14 46  1  0
 14 47  1  0
 15 48  1  0
 15 49  1  0
M  CHG  1  18  -1
M  END
>  <meeko>  (1) 
{"is_sidechain": [false], "free_energy": -5.893, "intermolecular_energy": -10.716, "internal_energy": -2.0}

$$$$
palmitate_Clobe_run02
     RDKit          3D

 49 48  0  0  0  0  0  0  0  0999 V2000
    8.3180   29.4060   17.2350 C   0  0  0  0  0  0  0  0  0  0  0  0
    7.0090   29.4860   18.0050 C   0  0  0  0  0  0  0  0  0  0  0  0
    5.7990   29.8110   17.1250 C   0  0  0  0  0  0  0  0  0  0  0  0
    5.0580   31.0800   17.5580 C   0  0  0  0  0  0  0  0  0  0  0  0
    5.9790   32.1540   18.1500 C   0  0  0  0  0  0  0  0  0  0  0  0
    6.5460   33.1730   17.1570 C   0  0  0  0  0  0  0  0  0  0  0  0
    8.0500   33.4050   17.3120 C   0  0  0  0  0  0  0  0  0  0  0  0
    8.8220   32.8650   16.1060 C   0  0  0  0  0  0  0  0  0  0  0  0
   10.2430   32.4560   16.5020 C   0  0  0  0  0  0  0  0  0  0  0  0
   10.6430   32.9080   17.9090 C   0  0  0  0  0  0  0  0  0  0  0  0
   10.8510   31.7900   18.9380 C   0  0  0  0  0  0  0  0  0  0  0  0
    9.7920   31.7700   20.0430 C   0  0  0  0  0  0  0  0  0  0  0  0
   10.3930   31.3450   21.3830 C   0  0  0  0  0  0  0  0  0  0  0  0
   10.5530   32.4990   22.3820 C   0  0  0  0  0  0  0  0  0  0  0  0
   10.6670   32.0620   23.8420 C   0  0  0  0  0  0  0  0  0  0  0  0
   12.0210   32.3070   24.4610 C   0  0  0  0  0  0  0  0  0  0  0  0
   13.0500   31.7570   24.0920 O   0  0  0  0  0  0  0  0  0  0  0  0
   11.9760   33.1790   25.4980 O   0  0  0  0  0  0  0  0  0  0  0  0
    9.1577   29.3547   17.9437 H   0  0  0  0  0  0  0  0  0  0  0  0
    8.3168   28.5063   16.6022 H   0  0  0  0  0  0  0  0  0  0  0  0
    8.4263   30.2992   16.6022 H   0  0  0  0  0  0  0  0  0  0  0  0
    6.8332   28.5163   18.4936 H   0  0  0  0  0  0  0  0  0  0  0  0
    7.1107   30.3073   18.7296 H   0  0  0  0  0  0  0  0  0  0  0  0
    6.1462   29.9454   16.0899 H   0  0  0  0  0  0  0  0  0  0  0  0
    5.0928   28.9730   17.2199 H   0  0  0  0  0  0  0  0  0  0  0  0
    4.5494   31.5032   16.6793 H   0  0  0  0  0  0  0  0  0  0  0  0
    4.3511   30.7882   18.3486 H   0  0  0  0  0  0  0  0  0  0  0  0
    5.4068   32.7067   18.9097 H   0  0  0  0  0  0  0  0  0  0  0  0
    6.8493   31.6119   18.5485 H   0  0  0  0  0  0  0  0  0  0  0  0
    6.3532   32.8094   16.1369 H   0  0  0  0  0  0  0  0  0  0  0  0
    6.0482   34.1329   17.3591 H   0  0  0  0  0  0  0  0  0  0  0  0
    8.2386   34.4848   17.4042 H   0  0  0  0  0  0  0  0  0  0  0  0
    8.3931   32.8724   18.2113 H   0  0  0  0  0  0  0  0  0  0  0  0
    8.2939   31.9875   15.7045 H   0  0  0  0  0  0  0  0  0  0  0  0
    8.8847   33.6582   15.3465 H   0  0  0  0  0  0  0  0  0  0  0  0
   10.3145   31.3593   16.4559 H   0  0  0  0  0  0  0  0  0  0  0  0
   10.9283   32.9507   15.7980 H   0  0  0  0  0  0  0  0  0  0  0  0
   11.5849   33.4703   17.8273 H   0  0  0  0  0  0  0  0  0  0  0  0
    9.7963   33.5026   18.2826 H   0  0  0  0  0  0  0  0  0  0  0  0
   10.8236   30.8241   18.4125 H   0  0  0  0  0  0  0  0  0  0  0  0
   11.8206   31.9745   19.4235 H   0  0  0  0  0  0  0  0  0  0  0  0
    9.3634   32.7778   20.1464 H   0  0  0  0  0  0  0  0  0  0  0  0
    9.0152   31.0424   19.7653 H   0  0  0  0  0  0  0  0  0  0  0  0
    9.7367   30.5853   21.8325 H   0  0  0  0  0  0  0  0  0  0  0  0
   11.4016   30.9586   21.1745 H   0  0  0  0  0  0  0  0  0  0  0  0
   11.4631   33.0578   22.1185 H   0  0  0  0  0  0  0  0  0  0  0  0
    9.6388   33.1062   22.3076 H   0  0  0  0  0  0  0  0  0  0  0  0
    9.9164   32.6144   24.4263 H   0  0  0  0  0  0  0  0  0  0  0  0
   10.5063   30.9739   23.8579 H   0  0  0  0  0  0  0  0  0  0  0  0
  1  2  1  0
  2  3  1  0
  3  4  1  0
  4  5  1  0
  5  6  1  0
  6  7  1  0
  7  8  1  0
  8  9  1  0
  9 10  1  0
 10 11  1  0
 11 12  1  0
 12 13  1  0
 13 14  1  0
 14 15  1  0
 15 16  1  0
 16 17  2  0
 16 18  1  0
  1 19  1  0
  1 20  1  0
  1 21  1  0
  2 22  1  0
  2 23  1  0
  3 24  1  0
  3 25  1  0
  4 26  1  0
  4 27  1  0
  5 28  1  0
  5 29  1  0
  6 30  1  0
  6 31  1  0
  7 32  1  0
  7 33  1  0
  8 34  1  0
  8 35  1  0
  9 36  1  0
  9 37  1  0
 10 38  1  0
 10 39  1  0
 11 40  1  0
 11 41  1  0
 12 42  1  0
 12 43  1  0
 13 44  1  0
 13 45  1  0
 14 46  1  0
 14 47  1  0
 15 48  1  0
 15 49  1  0
M  CHG  1  18  -1
M  END
>  <meeko>  (2) 
{"is_sidechain": [false], "free_energy": -5.85, "intermolecular_energy": -11.052, "internal_energy": -1.587}

$$$$
palmitate_Clobe_run02
     RDKit          3D

 49 48  0  0  0  0  0  0  0  0999 V2000
    5.6100   33.7150   16.8830 C   0  0  0  0  0  0  0  0  0  0  0  0
    4.7520   32.6680   17.5760 C   0  0  0  0  0  0  0  0  0  0  0  0
    5.3810   32.1070   18.8540 C   0  0  0  0  0  0  0  0  0  0  0  0
    5.5060   30.5810   18.8480 C   0  0  0  0  0  0  0  0  0  0  0  0
    5.2060   29.9480   17.4840 C   0  0  0  0  0  0  0  0  0  0  0  0
    6.4240   29.5880   16.6270 C   0  0  0  0  0  0  0  0  0  0  0  0
    7.6060   29.0570   17.4400 C   0  0  0  0  0  0  0  0  0  0  0  0
    8.8610   29.9020   17.2100 C   0  0  0  0  0  0  0  0  0  0  0  0
    8.4950   31.3120   16.7390 C   0  0  0  0  0  0  0  0  0  0  0  0
    9.3360   32.4140   17.3910 C   0  0  0  0  0  0  0  0  0  0  0  0
    8.9080   32.8370   18.8010 C   0  0  0  0  0  0  0  0  0  0  0  0
    9.3410   31.8560   19.8930 C   0  0  0  0  0  0  0  0  0  0  0  0
   10.8640   31.8030   20.0230 C   0  0  0  0  0  0  0  0  0  0  0  0
   11.3500   31.1880   21.3420 C   0  0  0  0  0  0  0  0  0  0  0  0
   10.9390   31.9650   22.5930 C   0  0  0  0  0  0  0  0  0  0  0  0
   12.0560   32.1870   23.5830 C   0  0  0  0  0  0  0  0  0  0  0  0
   11.8980   32.6860   24.6890 O   0  0  0  0  0  0  0  0  0  0  0  0
   13.2660   31.8050   23.1060 O   0  0  0  0  0  0  0  0  0  0  0  0
    6.1164   34.3330   17.6391 H   0  0  0  0  0  0  0  0  0  0  0  0
    6.3618   33.2154   16.2543 H   0  0  0  0  0  0  0  0  0  0  0  0
    4.9724   34.3540   16.2543 H   0  0  0  0  0  0  0  0  0  0  0  0
    3.7865   33.1265   17.8361 H   0  0  0  0  0  0  0  0  0  0  0  0
    4.6412   31.8272   16.8755 H   0  0  0  0  0  0  0  0  0  0  0  0
    6.3862   32.5392   18.9673 H   0  0  0  0  0  0  0  0  0  0  0  0
    4.7176   32.3763   19.6891 H   0  0  0  0  0  0  0  0  0  0  0  0
    6.5334   30.3147   19.1370 H   0  0  0  0  0  0  0  0  0  0  0  0
    4.7594   30.1925   19.5562 H   0  0  0  0  0  0  0  0  0  0  0  0
    4.6339   29.0251   17.6600 H   0  0  0  0  0  0  0  0  0  0  0  0
    4.6601   30.7151   16.9152 H   0  0  0  0  0  0  0  0  0  0  0  0
    6.1245   28.8160   15.9029 H   0  0  0  0  0  0  0  0  0  0  0  0
    6.7588   30.5133   16.1353 H   0  0  0  0  0  0  0  0  0  0  0  0
    7.3469   29.0832   18.5087 H   0  0  0  0  0  0  0  0  0  0  0  0
    7.8160   28.0268   17.1166 H   0  0  0  0  0  0  0  0  0  0  0  0
    9.4247   29.9725   18.1520 H   0  0  0  0  0  0  0  0  0  0  0  0
    9.4701   29.4197   16.4313 H   0  0  0  0  0  0  0  0  0  0  0  0
    8.6391   31.3631   15.6497 H   0  0  0  0  0  0  0  0  0  0  0  0
    7.4494   31.4885   17.0314 H   0  0  0  0  0  0  0  0  0  0  0  0
   10.3748   32.0566   17.4471 H   0  0  0  0  0  0  0  0  0  0  0  0
    9.2013   33.3044   16.7593 H   0  0  0  0  0  0  0  0  0  0  0  0
    9.3528   33.8190   19.0195 H   0  0  0  0  0  0  0  0  0  0  0  0
    7.8084   32.8645   18.8097 H   0  0  0  0  0  0  0  0  0  0  0  0
    8.9107   32.1765   20.8533 H   0  0  0  0  0  0  0  0  0  0  0  0
    8.9816   30.8529   19.6198 H   0  0  0  0  0  0  0  0  0  0  0  0
   11.2626   31.2023   19.1922 H   0  0  0  0  0  0  0  0  0  0  0  0
   11.2246   32.8420   20.0009 H   0  0  0  0  0  0  0  0  0  0  0  0
   10.9388   30.1706   21.4188 H   0  0  0  0  0  0  0  0  0  0  0  0
   12.4494   31.2062   21.3094 H   0  0  0  0  0  0  0  0  0  0  0  0
   10.5578   32.9476   22.2781 H   0  0  0  0  0  0  0  0  0  0  0  0
   10.1805   31.3557   23.1063 H   0  0  0  0  0  0  0  0  0  0  0  0
  1  2  1  0
  2  3  1  0
  3  4  1  0
  4  5  1  0
  5  6  1  0
  6  7  1  0
  7  8  1  0
  8  9  1  0
  9 10  1  0
 10 11  1  0
 11 12  1  0
 12 13  1  0
 13 14  1  0
 14 15  1  0
 15 16  1  0
 16 17  2  0
 16 18  1  0
  1 19  1  0
  1 20  1  0
  1 21  1  0
  2 22  1  0
  2 23  1  0
  3 24  1  0
  3 25  1  0
  4 26  1  0
  4 27  1  0
  5 28  1  0
  5 29  1  0
  6 30  1  0
  6 31  1  0
  7 32  1  0
  7 33  1  0
  8 34  1  0
  8 35  1  0
  9 36  1  0
  9 37  1  0
 10 38  1  0
 10 39  1  0
 11 40  1  0
 11 41  1  0
 12 42  1  0
 12 43  1  0
 13 44  1  0
 13 45  1  0
 14 46  1  0
 14 47  1  0
 15 48  1  0
 15 49  1  0
M  CHG  1  18  -1
M  END
>  <meeko>  (3) 
{"is_sidechain": [false], "free_energy": -5.723, "intermolecular_energy": -10.605, "internal_energy": -1.803}

$$$$
palmitate_Clobe_run02
     RDKit          3D

 49 48  0  0  0  0  0  0  0  0999 V2000
    4.1710   33.0550   16.8420 C   0  0  0  0  0  0  0  0  0  0  0  0
    5.0940   32.6500   17.9800 C   0  0  0  0  0  0  0  0  0  0  0  0
    5.0040   31.1660   18.3460 C   0  0  0  0  0  0  0  0  0  0  0  0
    5.1330   30.9040   19.8490 C   0  0  0  0  0  0  0  0  0  0  0  0
    5.9970   31.9390   20.5790 C   0  0  0  0  0  0  0  0  0  0  0  0
    5.4500   32.4460   21.9170 C   0  0  0  0  0  0  0  0  0  0  0  0
    6.3880   33.4220   22.6300 C   0  0  0  0  0  0  0  0  0  0  0  0
    7.7980   33.3700   22.0340 C   0  0  0  0  0  0  0  0  0  0  0  0
    8.8600   33.3770   23.1360 C   0  0  0  0  0  0  0  0  0  0  0  0
   10.1310   32.6050   22.7690 C   0  0  0  0  0  0  0  0  0  0  0  0
    9.9800   31.5500   21.6670 C   0  0  0  0  0  0  0  0  0  0  0  0
   11.1560   31.5140   20.6880 C   0  0  0  0  0  0  0  0  0  0  0  0
   10.7110   31.8730   19.2690 C   0  0  0  0  0  0  0  0  0  0  0  0
    9.2760   31.4410   18.9440 C   0  0  0  0  0  0  0  0  0  0  0  0
    9.0160   31.1700   17.4630 C   0  0  0  0  0  0  0  0  0  0  0  0
    8.4520   29.8020   17.1690 C   0  0  0  0  0  0  0  0  0  0  0  0
    8.8870   28.7650   17.6550 O   0  0  0  0  0  0  0  0  0  0  0  0
    7.4290   29.8330   16.2800 O   0  0  0  0  0  0  0  0  0  0  0  0
    3.2375   33.4646   17.2551 H   0  0  0  0  0  0  0  0  0  0  0  0
    4.6647   33.8192   16.2237 H   0  0  0  0  0  0  0  0  0  0  0  0
    3.9430   32.1743   16.2237 H   0  0  0  0  0  0  0  0  0  0  0  0
    6.1296   32.8725   17.6833 H   0  0  0  0  0  0  0  0  0  0  0  0
    4.7803   33.2198   18.8671 H   0  0  0  0  0  0  0  0  0  0  0  0
    4.0310   30.7811   18.0068 H   0  0  0  0  0  0  0  0  0  0  0  0
    5.8456   30.6573   17.8532 H   0  0  0  0  0  0  0  0  0  0  0  0
    4.1263   30.9163   20.2921 H   0  0  0  0  0  0  0  0  0  0  0  0
    5.6287   29.9290   19.9658 H   0  0  0  0  0  0  0  0  0  0  0  0
    6.9802   31.4835   20.7682 H   0  0  0  0  0  0  0  0  0  0  0  0
    6.0281   32.8183   19.9188 H   0  0  0  0  0  0  0  0  0  0  0  0
    4.4931   32.9558   21.7311 H   0  0  0  0  0  0  0  0  0  0  0  0
    5.3359   31.5700   22.5724 H   0  0  0  0  0  0  0  0  0  0  0  0
    5.9913   34.4426   22.5248 H   0  0  0  0  0  0  0  0  0  0  0  0
    6.4473   33.1365   23.6906 H   0  0  0  0  0  0  0  0  0  0  0  0
    7.9033   32.4509   21.4388 H   0  0  0  0  0  0  0  0  0  0  0  0
    7.9439   34.2578   21.4012 H   0  0  0  0  0  0  0  0  0  0  0  0
    9.1359   34.4209   23.3462 H   0  0  0  0  0  0  0  0  0  0  0  0
    8.4199   32.8758   24.0107 H   0  0  0  0  0  0  0  0  0  0  0  0
   10.8839   33.3345   22.4360 H   0  0  0  0  0  0  0  0  0  0  0  0
   10.4137   32.0496   23.6755 H   0  0  0  0  0  0  0  0  0  0  0  0
    9.8922   30.5615   22.1416 H   0  0  0  0  0  0  0  0  0  0  0  0
    9.0846   31.8162   21.0861 H   0  0  0  0  0  0  0  0  0  0  0  0
   11.9184   32.2353   21.0174 H   0  0  0  0  0  0  0  0  0  0  0  0
   11.5651   30.4930   20.6751 H   0  0  0  0  0  0  0  0  0  0  0  0
   10.7805   32.9642   19.1491 H   0  0  0  0  0  0  0  0  0  0  0  0
   11.3736   31.3312   18.5781 H   0  0  0  0  0  0  0  0  0  0  0  0
    9.0590   30.5201   19.5051 H   0  0  0  0  0  0  0  0  0  0  0  0
    8.6246   32.2809   19.2274 H   0  0  0  0  0  0  0  0  0  0  0  0
    8.3025   31.9224   17.0957 H   0  0  0  0  0  0  0  0  0  0  0  0
    9.9921   31.2220   16.9584 H   0  0  0  0  0  0  0  0  0  0  0  0
  1  2  1  0
  2  3  1  0
  3  4  1  0
  4  5  1  0
  5  6  1  0
  6  7  1  0
  7  8  1  0
  8  9  1  0
  9 10  1  0
 10 11  1  0
 11 12  1  0
 12 13  1  0
 13 14  1  0
 14 15  1  0
 15 16  1  0
 16 17  2  0
 16 18  1  0
  1 19  1  0
  1 20  1  0
  1 21  1  0
  2 22  1  0
  2 23  1  0
  3 24  1  0
  3 25  1  0
  4 26  1  0
  4 27  1  0
  5 28  1  0
  5 29  1  0
  6 30  1  0
  6 31  1  0
  7 32  1  0
  7 33  1  0
  8 34  1  0
  8 35  1  0
  9 36  1  0
  9 37  1  0
 10 38  1  0
 10 39  1  0
 11 40  1  0
 11 41  1  0
 12 42  1  0
 12 43  1  0
 13 44  1  0
 13 45  1  0
 14 46  1  0
 14 47  1  0
 15 48  1  0
 15 49  1  0
M  CHG  1  18  -1
M  END
>  <meeko>  (4) 
{"is_sidechain": [false], "free_energy": -5.721, "intermolecular_energy": -10.778, "internal_energy": -1.625}

$$$$
palmitate_Clobe_run02
     RDKit          3D

 49 48  0  0  0  0  0  0  0  0999 V2000
    6.0340   33.0410   22.5130 C   0  0  0  0  0  0  0  0  0  0  0  0
    5.3100   32.2270   21.4530 C   0  0  0  0  0  0  0  0  0  0  0  0
    6.0830   32.1070   20.1370 C   0  0  0  0  0  0  0  0  0  0  0  0
    5.1870   32.1970   18.8980 C   0  0  0  0  0  0  0  0  0  0  0  0
    5.1660   30.9100   18.0630 C   0  0  0  0  0  0  0  0  0  0  0  0
    5.8240   29.6840   18.7030 C   0  0  0  0  0  0  0  0  0  0  0  0
    7.0650   29.1960   17.9530 C   0  0  0  0  0  0  0  0  0  0  0  0
    7.1330   29.7960   16.5460 C   0  0  0  0  0  0  0  0  0  0  0  0
    8.3170   30.7570   16.4160 C   0  0  0  0  0  0  0  0  0  0  0  0
    9.2990   30.6850   17.5900 C   0  0  0  0  0  0  0  0  0  0  0  0
    9.4900   31.9820   18.3840 C   0  0  0  0  0  0  0  0  0  0  0  0
   10.5620   31.8810   19.4730 C   0  0  0  0  0  0  0  0  0  0  0  0
    9.9450   31.9550   20.8700 C   0  0  0  0  0  0  0  0  0  0  0  0
   10.7910   31.2790   21.9560 C   0  0  0  0  0  0  0  0  0  0  0  0
   10.8830   32.0600   23.2670 C   0  0  0  0  0  0  0  0  0  0  0  0
   12.2860   32.2280   23.7950 C   0  0  0  0  0  0  0  0  0  0  0  0
   13.2900   31.8830   23.1870 O   0  0  0  0  0  0  0  0  0  0  0  0
   12.3190   32.7740   25.0360 O   0  0  0  0  0  0  0  0  0  0  0  0
    5.7280   32.6969   23.5120 H   0  0  0  0  0  0  0  0  0  0  0  0
    7.1201   32.9107   22.3971 H   0  0  0  0  0  0  0  0  0  0  0  0
    5.7779   34.1045   22.3971 H   0  0  0  0  0  0  0  0  0  0  0  0
    5.1384   31.2151   21.8488 H   0  0  0  0  0  0  0  0  0  0  0  0
    4.3708   32.7536   21.2281 H   0  0  0  0  0  0  0  0  0  0  0  0
    6.8238   32.9189   20.0919 H   0  0  0  0  0  0  0  0  0  0  0  0
    6.5556   31.1137   20.1260 H   0  0  0  0  0  0  0  0  0  0  0  0
    4.1601   32.4159   19.2261 H   0  0  0  0  0  0  0  0  0  0  0  0
    5.5988   32.9912   18.2580 H   0  0  0  0  0  0  0  0  0  0  0  0
    4.1149   30.6591   17.8576 H   0  0  0  0  0  0  0  0  0  0  0  0
    5.7601   31.1300   17.1638 H   0  0  0  0  0  0  0  0  0  0  0  0
    6.1179   29.9434   19.7308 H   0  0  0  0  0  0  0  0  0  0  0  0
    5.0864   28.8685   18.6731 H   0  0  0  0  0  0  0  0  0  0  0  0
    7.9633   29.4936   18.5138 H   0  0  0  0  0  0  0  0  0  0  0  0
    7.0093   28.1011   17.8625 H   0  0  0  0  0  0  0  0  0  0  0  0
    7.2473   28.9833   15.8135 H   0  0  0  0  0  0  0  0  0  0  0  0
    6.2050   30.3561   16.3587 H   0  0  0  0  0  0  0  0  0  0  0  0
    8.8619   30.5141   15.4918 H   0  0  0  0  0  0  0  0  0  0  0  0
    7.9043   31.7766   16.4035 H   0  0  0  0  0  0  0  0  0  0  0  0
    8.9363   29.9142   18.2859 H   0  0  0  0  0  0  0  0  0  0  0  0
   10.2796   30.4619   17.1443 H   0  0  0  0  0  0  0  0  0  0  0  0
    9.7796   32.7792   17.6836 H   0  0  0  0  0  0  0  0  0  0  0  0
    8.5361   32.1952   18.8886 H   0  0  0  0  0  0  0  0  0  0  0  0
   11.0921   30.9231   19.3659 H   0  0  0  0  0  0  0  0  0  0  0  0
   11.2564   32.7260   19.3554 H   0  0  0  0  0  0  0  0  0  0  0  0
    9.8187   33.0144   21.1378 H   0  0  0  0  0  0  0  0  0  0  0  0
    8.9876   31.4151   20.8268 H   0  0  0  0  0  0  0  0  0  0  0  0
   10.3493   30.2952   22.1727 H   0  0  0  0  0  0  0  0  0  0  0  0
   11.8147   31.2134   21.5589 H   0  0  0  0  0  0  0  0  0  0  0  0
   10.4553   33.0600   23.1025 H   0  0  0  0  0  0  0  0  0  0  0  0
   10.3322   31.4765   24.0194 H   0  0  0  0  0  0  0  0  0  0  0  0
  1  2  1  0
  2  3  1  0
  3  4  1  0
  4  5  1  0
  5  6  1  0
  6  7  1  0
  7  8  1  0
  8  9  1  0
  9 10  1  0
 10 11  1  0
 11 12  1  0
 12 13  1  0
 13 14  1  0
 14 15  1  0
 15 16  1  0
 16 17  2  0
 16 18  1  0
  1 19  1  0
  1 20  1  0
  1 21  1  0
  2 22  1  0
  2 23  1  0
  3 24  1  0
  3 25  1  0
  4 26  1  0
  4 27  1  0
  5 28  1  0
  5 29  1  0
  6 30  1  0
  6 31  1  0
  7 32  1  0
  7 33  1  0
  8 34  1  0
  8 35  1  0
  9 36  1  0
  9 37  1  0
 10 38  1  0
 10 39  1  0
 11 40  1  0
 11 41  1  0
 12 42  1  0
 12 43  1  0
 13 44  1  0
 13 45  1  0
 14 46  1  0
 14 47  1  0
 15 48  1  0
 15 49  1  0
M  CHG  1  18  -1
M  END
>  <meeko>  (5) 
{"is_sidechain": [false], "free_energy": -5.693, "intermolecular_energy": -10.95, "internal_energy": -1.403}

$$$$
palmitate_Clobe_run02
     RDKit          3D

 49 48  0  0  0  0  0  0  0  0999 V2000
   10.6880   32.5360   17.0890 C   0  0  0  0  0  0  0  0  0  0  0  0
    9.4920   33.4010   16.7240 C   0  0  0  0  0  0  0  0  0  0  0  0
    8.2330   32.5970   16.3890 C   0  0  0  0  0  0  0  0  0  0  0  0
    8.5250   31.1370   16.0290 C   0  0  0  0  0  0  0  0  0  0  0  0
    7.9080   30.1300   17.0070 C   0  0  0  0  0  0  0  0  0  0  0  0
    6.4530   29.7360   16.7350 C   0  0  0  0  0  0  0  0  0  0  0  0
    5.4390   30.5470   17.5440 C   0  0  0  0  0  0  0  0  0  0  0  0
    5.6960   30.4150   19.0470 C   0  0  0  0  0  0  0  0  0  0  0  0
    5.6130   31.7770   19.7400 C   0  0  0  0  0  0  0  0  0  0  0  0
    6.7980   32.0690   20.6650 C   0  0  0  0  0  0  0  0  0  0  0  0
    8.0990   32.4930   19.9740 C   0  0  0  0  0  0  0  0  0  0  0  0
    9.2180   31.4530   20.0830 C   0  0  0  0  0  0  0  0  0  0  0  0
    9.6160   31.2140   21.5400 C   0  0  0  0  0  0  0  0  0  0  0  0
   10.7560   32.1180   22.0250 C   0  0  0  0  0  0  0  0  0  0  0  0
   10.8810   32.2190   23.5450 C   0  0  0  0  0  0  0  0  0  0  0  0
   12.3020   32.2550   24.0520 C   0  0  0  0  0  0  0  0  0  0  0  0
   13.2740   31.9320   23.3820 O   0  0  0  0  0  0  0  0  0  0  0  0
   12.3900   32.6520   25.3450 O   0  0  0  0  0  0  0  0  0  0  0  0
   10.7747   32.4733   18.1838 H   0  0  0  0  0  0  0  0  0  0  0  0
   10.5509   31.5267   16.6736 H   0  0  0  0  0  0  0  0  0  0  0  0
   11.6036   32.9822   16.6736 H   0  0  0  0  0  0  0  0  0  0  0  0
    9.2671   34.0604   17.5752 H   0  0  0  0  0  0  0  0  0  0  0  0
    9.7653   33.9638   15.8193 H   0  0  0  0  0  0  0  0  0  0  0  0
    7.5648   32.6144   17.2626 H   0  0  0  0  0  0  0  0  0  0  0  0
    7.7728   33.0647   15.5061 H   0  0  0  0  0  0  0  0  0  0  0  0
    8.1219   30.9388   15.0249 H   0  0  0  0  0  0  0  0  0  0  0  0
    9.6161   31.0049   16.0745 H   0  0  0  0  0  0  0  0  0  0  0  0
    8.5163   29.2141   16.9756 H   0  0  0  0  0  0  0  0  0  0  0  0
    7.9016   30.6323   17.9856 H   0  0  0  0  0  0  0  0  0  0  0  0
    6.2456   29.8872   15.6654 H   0  0  0  0  0  0  0  0  0  0  0  0
    6.3409   28.6844   17.0375 H   0  0  0  0  0  0  0  0  0  0  0  0
    5.5174   31.6064   17.2584 H   0  0  0  0  0  0  0  0  0  0  0  0
    4.4322   30.1600   17.3279 H   0  0  0  0  0  0  0  0  0  0  0  0
    4.9421   29.7431   19.4831 H   0  0  0  0  0  0  0  0  0  0  0  0
    6.7071   30.0079   19.1949 H   0  0  0  0  0  0  0  0  0  0  0  0
    5.5749   32.5585   18.9668 H   0  0  0  0  0  0  0  0  0  0  0  0
    4.7099   31.7642   20.3679 H   0  0  0  0  0  0  0  0  0  0  0  0
    6.5005   32.8779   21.3485 H   0  0  0  0  0  0  0  0  0  0  0  0
    7.0247   31.1170   21.1674 H   0  0  0  0  0  0  0  0  0  0  0  0
    7.8868   32.6652   18.9085 H   0  0  0  0  0  0  0  0  0  0  0  0
    8.4528   33.4021   20.4822 H   0  0  0  0  0  0  0  0  0  0  0  0
    8.8697   30.5051   19.6468 H   0  0  0  0  0  0  0  0  0  0  0  0
   10.0972   31.8316   19.5411 H   0  0  0  0  0  0  0  0  0  0  0  0
    8.7358   31.3949   22.1744 H   0  0  0  0  0  0  0  0  0  0  0  0
    9.9773   30.1773   21.6082 H   0  0  0  0  0  0  0  0  0  0  0  0
   11.7020   31.7212   21.6280 H   0  0  0  0  0  0  0  0  0  0  0  0
   10.5286   33.1310   21.6615 H   0  0  0  0  0  0  0  0  0  0  0  0
   10.3757   33.1399   23.8714 H   0  0  0  0  0  0  0  0  0  0  0  0
   10.4226   31.3089   23.9591 H   0  0  0  0  0  0  0  0  0  0  0  0
  1  2  1  0
  2  3  1  0
  3  4  1  0
  4  5  1  0
  5  6  1  0
  6  7  1  0
  7  8  1  0
  8  9  1  0
  9 10  1  0
 10 11  1  0
 11 12  1  0
 12 13  1  0
 13 14  1  0
 14 15  1  0
 15 16  1  0
 16 17  2  0
 16 18  1  0
  1 19  1  0
  1 20  1  0
  1 21  1  0
  2 22  1  0
  2 23  1  0
  3 24  1  0
  3 25  1  0
  4 26  1  0
  4 27  1  0
  5 28  1  0
  5 29  1  0
  6 30  1  0
  6 31  1  0
  7 32  1  0
  7 33  1  0
  8 34  1  0
  8 35  1  0
  9 36  1  0
  9 37  1  0
 10 38  1  0
 10 39  1  0
 11 40  1  0
 11 41  1  0
 12 42  1  0
 12 43  1  0
 13 44  1  0
 13 45  1  0
 14 46  1  0
 14 47  1  0
 15 48  1  0
 15 49  1  0
M  CHG  1  18  -1
M  END
>  <meeko>  (6) 
{"is_sidechain": [false], "free_energy": -5.667, "intermolecular_energy": -10.669, "internal_energy": -1.636}

$$$$
palmitate_Clobe_run02
     RDKit          3D

 49 48  0  0  0  0  0  0  0  0999 V2000
    5.4430   32.0700   19.8460 C   0  0  0  0  0  0  0  0  0  0  0  0
    5.3670   32.1730   18.3310 C   0  0  0  0  0  0  0  0  0  0  0  0
    5.1680   30.8240   17.6340 C   0  0  0  0  0  0  0  0  0  0  0  0
    6.2710   29.8100   17.9510 C   0  0  0  0  0  0  0  0  0  0  0  0
    7.1200   29.4270   16.7330 C   0  0  0  0  0  0  0  0  0  0  0  0
    8.4840   30.1160   16.6230 C   0  0  0  0  0  0  0  0  0  0  0  0
    8.4530   31.4050   15.8010 C   0  0  0  0  0  0  0  0  0  0  0  0
    8.7060   32.6310   16.6830 C   0  0  0  0  0  0  0  0  0  0  0  0
   10.1990   32.9610   16.7480 C   0  0  0  0  0  0  0  0  0  0  0  0
   10.7840   32.8870   18.1620 C   0  0  0  0  0  0  0  0  0  0  0  0
   10.5860   31.5580   18.9000 C   0  0  0  0  0  0  0  0  0  0  0  0
    9.7460   31.6840   20.1740 C   0  0  0  0  0  0  0  0  0  0  0  0
   10.5840   31.4070   21.4230 C   0  0  0  0  0  0  0  0  0  0  0  0
   10.4500   32.4830   22.5080 C   0  0  0  0  0  0  0  0  0  0  0  0
   10.8950   32.0380   23.9010 C   0  0  0  0  0  0  0  0  0  0  0  0
   12.3210   32.3930   24.2420 C   0  0  0  0  0  0  0  0  0  0  0  0
   12.6420   33.0770   25.2050 O   0  0  0  0  0  0  0  0  0  0  0  0
   13.2140   31.9020   23.3490 O   0  0  0  0  0  0  0  0  0  0  0  0
    4.8478   32.8767   20.2987 H   0  0  0  0  0  0  0  0  0  0  0  0
    5.0454   31.0961   20.1677 H   0  0  0  0  0  0  0  0  0  0  0  0
    6.4908   32.1626   20.1677 H   0  0  0  0  0  0  0  0  0  0  0  0
    4.5228   32.8277   18.0689 H   0  0  0  0  0  0  0  0  0  0  0  0
    6.3311   32.5751   17.9863 H   0  0  0  0  0  0  0  0  0  0  0  0
    4.2040   30.4034   17.9561 H   0  0  0  0  0  0  0  0  0  0  0  0
    5.1977   31.0097   16.5502 H   0  0  0  0  0  0  0  0  0  0  0  0
    6.9336   30.2439   18.7144 H   0  0  0  0  0  0  0  0  0  0  0  0
    5.7753   28.8924   18.3006 H   0  0  0  0  0  0  0  0  0  0  0  0
    7.2932   28.3414   16.7712 H   0  0  0  0  0  0  0  0  0  0  0  0
    6.5472   29.7602   15.8550 H   0  0  0  0  0  0  0  0  0  0  0  0
    8.8342   30.3584   17.6372 H   0  0  0  0  0  0  0  0  0  0  0  0
    9.1575   29.4181   16.1041 H   0  0  0  0  0  0  0  0  0  0  0  0
    9.2312   31.3545   15.0252 H   0  0  0  0  0  0  0  0  0  0  0  0
    7.4566   31.5035   15.3455 H   0  0  0  0  0  0  0  0  0  0  0  0
    8.1650   33.4927   16.2650 H   0  0  0  0  0  0  0  0  0  0  0  0
    8.3512   32.4100   17.7005 H   0  0  0  0  0  0  0  0  0  0  0  0
   10.7407   32.2472   16.1100 H   0  0  0  0  0  0  0  0  0  0  0  0
   10.3142   34.0001   16.4059 H   0  0  0  0  0  0  0  0  0  0  0  0
   11.8655   33.0743   18.0895 H   0  0  0  0  0  0  0  0  0  0  0  0
   10.2368   33.6384   18.7502 H   0  0  0  0  0  0  0  0  0  0  0  0
   10.0835   30.8542   18.2202 H   0  0  0  0  0  0  0  0  0  0  0  0
   11.5828   31.2061   19.2041 H   0  0  0  0  0  0  0  0  0  0  0  0
    9.3387   32.7040   20.2350 H   0  0  0  0  0  0  0  0  0  0  0  0
    8.9348   30.9424   20.1292 H   0  0  0  0  0  0  0  0  0  0  0  0
   10.2653   30.4438   21.8482 H   0  0  0  0  0  0  0  0  0  0  0  0
   11.6377   31.3990   21.1073 H   0  0  0  0  0  0  0  0  0  0  0  0
   11.0621   33.3476   22.2118 H   0  0  0  0  0  0  0  0  0  0  0  0
    9.3784   32.7198   22.5829 H   0  0  0  0  0  0  0  0  0  0  0  0
   10.2353   32.5140   24.6414 H   0  0  0  0  0  0  0  0  0  0  0  0
   10.8327   30.9399   23.9149 H   0  0  0  0  0  0  0  0  0  0  0  0
  1  2  1  0
  2  3  1  0
  3  4  1  0
  4  5  1  0
  5  6  1  0
  6  7  1  0
  7  8  1  0
  8  9  1  0
  9 10  1  0
 10 11  1  0
 11 12  1  0
 12 13  1  0
 13 14  1  0
 14 15  1  0
 15 16  1  0
 16 17  2  0
 16 18  1  0
  1 19  1  0
  1 20  1  0
  1 21  1  0
  2 22  1  0
  2 23  1  0
  3 24  1  0
  3 25  1  0
  4 26  1  0
  4 27  1  0
  5 28  1  0
  5 29  1  0
  6 30  1  0
  6 31  1  0
  7 32  1  0
  7 33  1  0
  8 34  1  0
  8 35  1  0
  9 36  1  0
  9 37  1  0
 10 38  1  0
 10 39  1  0
 11 40  1  0
 11 41  1  0
 12 42  1  0
 12 43  1  0
 13 44  1  0
 13 45  1  0
 14 46  1  0
 14 47  1  0
 15 48  1  0
 15 49  1  0
M  CHG  1  18  -1
M  END
>  <meeko>  (7) 
{"is_sidechain": [false], "free_energy": -5.663, "intermolecular_energy": -11.154, "internal_energy": -1.143}

$$$$
palmitate_Clobe_run02
     RDKit          3D

 49 48  0  0  0  0  0  0  0  0999 V2000
    9.9260   32.9760   16.0640 C   0  0  0  0  0  0  0  0  0  0  0  0
   10.5540   32.9680   17.4490 C   0  0  0  0  0  0  0  0  0  0  0  0
   10.6010   31.5790   18.0930 C   0  0  0  0  0  0  0  0  0  0  0  0
    9.8340   31.4980   19.4160 C   0  0  0  0  0  0  0  0  0  0  0  0
   10.7160   31.7250   20.6500 C   0  0  0  0  0  0  0  0  0  0  0  0
   10.0450   31.4930   22.0070 C   0  0  0  0  0  0  0  0  0  0  0  0
   10.3130   32.6080   23.0190 C   0  0  0  0  0  0  0  0  0  0  0  0
    9.0150   33.3030   23.4360 C   0  0  0  0  0  0  0  0  0  0  0  0
    8.0300   33.3730   22.2670 C   0  0  0  0  0  0  0  0  0  0  0  0
    6.5600   33.3290   22.6980 C   0  0  0  0  0  0  0  0  0  0  0  0
    5.6160   32.5450   21.7790 C   0  0  0  0  0  0  0  0  0  0  0  0
    6.3260   31.8800   20.5960 C   0  0  0  0  0  0  0  0  0  0  0  0
    5.3920   31.7420   19.3930 C   0  0  0  0  0  0  0  0  0  0  0  0
    5.5910   30.4420   18.6030 C   0  0  0  0  0  0  0  0  0  0  0  0
    6.2740   30.6220   17.2470 C   0  0  0  0  0  0  0  0  0  0  0  0
    7.5320   29.8090   17.0710 C   0  0  0  0  0  0  0  0  0  0  0  0
    8.2650   29.8880   16.0940 O   0  0  0  0  0  0  0  0  0  0  0  0
    7.7520   28.9500   18.0960 O   0  0  0  0  0  0  0  0  0  0  0  0
    8.8301   32.9900   16.1584 H   0  0  0  0  0  0  0  0  0  0  0  0
   10.2582   33.8700   15.5159 H   0  0  0  0  0  0  0  0  0  0  0  0
   10.2354   32.0738   15.5159 H   0  0  0  0  0  0  0  0  0  0  0  0
   11.5830   33.3480   17.3665 H   0  0  0  0  0  0  0  0  0  0  0  0
    9.9247   33.6006   18.0922 H   0  0  0  0  0  0  0  0  0  0  0  0
   10.1637   30.8538   17.3910 H   0  0  0  0  0  0  0  0  0  0  0  0
   11.6557   31.3581   18.3140 H   0  0  0  0  0  0  0  0  0  0  0  0
    9.0437   32.2631   19.4075 H   0  0  0  0  0  0  0  0  0  0  0  0
    9.4275   30.4787   19.4922 H   0  0  0  0  0  0  0  0  0  0  0  0
   11.5761   31.0430   20.5789 H   0  0  0  0  0  0  0  0  0  0  0  0
   10.9843   32.7916   20.6305 H   0  0  0  0  0  0  0  0  0  0  0  0
    8.9588   31.4190   21.8501 H   0  0  0  0  0  0  0  0  0  0  0  0
   10.4704   30.5684   22.4243 H   0  0  0  0  0  0  0  0  0  0  0  0
   10.7906   32.1757   23.9106 H   0  0  0  0  0  0  0  0  0  0  0  0
   10.9708   33.3536   22.5486 H   0  0  0  0  0  0  0  0  0  0  0  0
    8.5545   32.7398   24.2611 H   0  0  0  0  0  0  0  0  0  0  0  0
    9.2535   34.3284   23.7550 H   0  0  0  0  0  0  0  0  0  0  0  0
    8.2042   34.3122   21.7216 H   0  0  0  0  0  0  0  0  0  0  0  0
    8.2089   32.4858   21.6417 H   0  0  0  0  0  0  0  0  0  0  0  0
    6.5153   32.8708   23.6970 H   0  0  0  0  0  0  0  0  0  0  0  0
    6.2091   34.3710   22.6661 H   0  0  0  0  0  0  0  0  0  0  0  0
    5.1225   31.7620   22.3734 H   0  0  0  0  0  0  0  0  0  0  0  0
    4.8988   33.2667   21.3611 H   0  0  0  0  0  0  0  0  0  0  0  0
    7.1929   32.4928   20.3080 H   0  0  0  0  0  0  0  0  0  0  0  0
    6.6457   30.8736   20.9043 H   0  0  0  0  0  0  0  0  0  0  0  0
    4.3535   31.7732   19.7544 H   0  0  0  0  0  0  0  0  0  0  0  0
    5.6239   32.5720   18.7094 H   0  0  0  0  0  0  0  0  0  0  0  0
    6.2066   29.7619   19.2101 H   0  0  0  0  0  0  0  0  0  0  0  0
    4.5863   30.0445   18.3968 H   0  0  0  0  0  0  0  0  0  0  0  0
    5.5620   30.3288   16.4614 H   0  0  0  0  0  0  0  0  0  0  0  0
    6.5715   31.6791   17.1829 H   0  0  0  0  0  0  0  0  0  0  0  0
  1  2  1  0
  2  3  1  0
  3  4  1  0
  4  5  1  0
  5  6  1  0
  6  7  1  0
  7  8  1  0
  8  9  1  0
  9 10  1  0
 10 11  1  0
 11 12  1  0
 12 13  1  0
 13 14  1  0
 14 15  1  0
 15 16  1  0
 16 17  2  0
 16 18  1  0
  1 19  1  0
  1 20  1  0
  1 21  1  0
  2 22  1  0
  2 23  1  0
  3 24  1  0
  3 25  1  0
  4 26  1  0
  4 27  1  0
  5 28  1  0
  5 29  1  0
  6 30  1  0
  6 31  1  0
  7 32  1  0
  7 33  1  0
  8 34  1  0
  8 35  1  0
  9 36  1  0
  9 37  1  0
 10 38  1  0
 10 39  1  0
 11 40  1  0
 11 41  1  0
 12 42  1  0
 12 43  1  0
 13 44  1  0
 13 45  1  0
 14 46  1  0
 14 47  1  0
 15 48  1  0
 15 49  1  0
M  CHG  1  18  -1
M  END
>  <meeko>  (8) 
{"is_sidechain": [false], "free_energy": -5.646, "intermolecular_energy": -10.828, "internal_energy": -1.439}

$$$$
palmitate_Clobe_run02
     RDKit          3D

 49 48  0  0  0  0  0  0  0  0999 V2000
    4.2940   31.2340   17.1810 C   0  0  0  0  0  0  0  0  0  0  0  0
    5.0160   32.0130   18.2690 C   0  0  0  0  0  0  0  0  0  0  0  0
    5.2020   31.2240   19.5680 C   0  0  0  0  0  0  0  0  0  0  0  0
    6.1950   31.8750   20.5350 C   0  0  0  0  0  0  0  0  0  0  0  0
    5.5310   32.4870   21.7740 C   0  0  0  0  0  0  0  0  0  0  0  0
    6.4320   33.3510   22.6620 C   0  0  0  0  0  0  0  0  0  0  0  0
    7.8500   33.5180   22.1130 C   0  0  0  0  0  0  0  0  0  0  0  0
    8.8950   33.3510   23.2190 C   0  0  0  0  0  0  0  0  0  0  0  0
   10.1430   32.6390   22.6920 C   0  0  0  0  0  0  0  0  0  0  0  0
    9.9220   31.9140   21.3610 C   0  0  0  0  0  0  0  0  0  0  0  0
   11.1460   31.8100   20.4440 C   0  0  0  0  0  0  0  0  0  0  0  0
   10.8180   31.2860   19.0430 C   0  0  0  0  0  0  0  0  0  0  0  0
   10.2140   32.3830   18.1650 C   0  0  0  0  0  0  0  0  0  0  0  0
    8.7240   32.1810   17.8620 C   0  0  0  0  0  0  0  0  0  0  0  0
    8.4320   31.1400   16.7810 C   0  0  0  0  0  0  0  0  0  0  0  0
    7.8050   29.8680   17.2950 C   0  0  0  0  0  0  0  0  0  0  0  0
    7.8910   29.4840   18.4540 O   0  0  0  0  0  0  0  0  0  0  0  0
    7.1610   29.1700   16.3270 O   0  0  0  0  0  0  0  0  0  0  0  0
    3.6154   30.5019   17.6431 H   0  0  0  0  0  0  0  0  0  0  0  0
    3.7134   31.9288   16.5564 H   0  0  0  0  0  0  0  0  0  0  0  0
    5.0308   30.7078   16.5564 H   0  0  0  0  0  0  0  0  0  0  0  0
    6.0085   32.2994   17.8911 H   0  0  0  0  0  0  0  0  0  0  0  0
    4.3913   32.8861   18.5088 H   0  0  0  0  0  0  0  0  0  0  0  0
    4.2268   31.1438   20.0705 H   0  0  0  0  0  0  0  0  0  0  0  0
    5.6101   30.2395   19.2957 H   0  0  0  0  0  0  0  0  0  0  0  0
    6.9112   31.1088   20.8666 H   0  0  0  0  0  0  0  0  0  0  0  0
    6.6844   32.6965   19.9914 H   0  0  0  0  0  0  0  0  0  0  0  0
    4.6945   33.1142   21.4322 H   0  0  0  0  0  0  0  0  0  0  0  0
    5.2285   31.6343   22.3996 H   0  0  0  0  0  0  0  0  0  0  0  0
    5.9756   34.3474   22.7564 H   0  0  0  0  0  0  0  0  0  0  0  0
    6.5185   32.8383   23.6314 H   0  0  0  0  0  0  0  0  0  0  0  0
    8.0256   32.7594   21.3360 H   0  0  0  0  0  0  0  0  0  0  0  0
    7.9445   34.5309   21.6946 H   0  0  0  0  0  0  0  0  0  0  0  0
    9.1801   34.3438   23.5973 H   0  0  0  0  0  0  0  0  0  0  0  0
    8.4583   32.7423   24.0245 H   0  0  0  0  0  0  0  0  0  0  0  0
   10.9369   33.3875   22.5522 H   0  0  0  0  0  0  0  0  0  0  0  0
   10.4140   31.8735   23.4340 H   0  0  0  0  0  0  0  0  0  0  0  0
    9.5817   30.8925   21.5861 H   0  0  0  0  0  0  0  0  0  0  0  0
    9.1879   32.5203   20.8101 H   0  0  0  0  0  0  0  0  0  0  0  0
   11.5931   32.8102   20.3456 H   0  0  0  0  0  0  0  0  0  0  0  0
   11.8354   31.0879   20.9059 H   0  0  0  0  0  0  0  0  0  0  0  0
   11.7421   30.9191   18.5725 H   0  0  0  0  0  0  0  0  0  0  0  0
   10.0813   30.4749   19.1401 H   0  0  0  0  0  0  0  0  0  0  0  0
   10.3357   33.3469   18.6809 H   0  0  0  0  0  0  0  0  0  0  0  0
   10.7446   32.3519   17.2019 H   0  0  0  0  0  0  0  0  0  0  0  0
    8.2250   31.8627   18.7892 H   0  0  0  0  0  0  0  0  0  0  0  0
    8.3495   33.1421   17.4799 H   0  0  0  0  0  0  0  0  0  0  0  0
    7.7470   31.5891   16.0468 H   0  0  0  0  0  0  0  0  0  0  0  0
    9.4021   30.8585   16.3456 H   0  0  0  0  0  0  0  0  0  0  0  0
  1  2  1  0
  2  3  1  0
  3  4  1  0
  4  5  1  0
  5  6  1  0
  6  7  1  0
  7  8  1  0
  8  9  1  0
  9 10  1  0
 10 11  1  0
 11 12  1  0
 12 13  1  0
 13 14  1  0
 14 15  1  0
 15 16  1  0
 16 17  2  0
 16 18  1  0
  1 19  1  0
  1 20  1  0
  1 21  1  0
  2 22  1  0
  2 23  1  0
  3 24  1  0
  3 25  1  0
  4 26  1  0
  4 27  1  0
  5 28  1  0
  5 29  1  0
  6 30  1  0
  6 31  1  0
  7 32  1  0
  7 33  1  0
  8 34  1  0
  8 35  1  0
  9 36  1  0
  9 37  1  0
 10 38  1  0
 10 39  1  0
 11 40  1  0
 11 41  1  0
 12 42  1  0
 12 43  1  0
 13 44  1  0
 13 45  1  0
 14 46  1  0
 14 47  1  0
 15 48  1  0
 15 49  1  0
M  CHG  1  18  -1
M  END
>  <meeko>  (9) 
{"is_sidechain": [false], "free_energy": -5.629, "intermolecular_energy": -10.478, "internal_energy": -1.758}

$$$$
palmitate_Clobe_run02
     RDKit          3D

 49 48  0  0  0  0  0  0  0  0999 V2000
   12.0380   31.8640   22.7410 C   0  0  0  0  0  0  0  0  0  0  0  0
   11.5490   31.3810   21.3850 C   0  0  0  0  0  0  0  0  0  0  0  0
   10.0450   31.5700   21.1710 C   0  0  0  0  0  0  0  0  0  0  0  0
    9.6680   31.8290   19.7090 C   0  0  0  0  0  0  0  0  0  0  0  0
   10.8790   31.9280   18.7740 C   0  0  0  0  0  0  0  0  0  0  0  0
   10.5790   32.3360   17.3280 C   0  0  0  0  0  0  0  0  0  0  0  0
    9.3840   33.2820   17.1960 C   0  0  0  0  0  0  0  0  0  0  0  0
    8.2000   32.5870   16.5200 C   0  0  0  0  0  0  0  0  0  0  0  0
    8.5990   31.2040   15.9980 C   0  0  0  0  0  0  0  0  0  0  0  0
    8.0600   30.0490   16.8470 C   0  0  0  0  0  0  0  0  0  0  0  0
    6.6500   29.5610   16.4950 C   0  0  0  0  0  0  0  0  0  0  0  0
    5.5940   29.9380   17.5370 C   0  0  0  0  0  0  0  0  0  0  0  0
    4.8910   31.2460   17.1700 C   0  0  0  0  0  0  0  0  0  0  0  0
    4.8760   32.2780   18.3050 C   0  0  0  0  0  0  0  0  0  0  0  0
    5.9760   32.0890   19.3490 C   0  0  0  0  0  0  0  0  0  0  0  0
    5.4710   31.8500   20.7500 C   0  0  0  0  0  0  0  0  0  0  0  0
    5.6620   32.6180   21.6850 O   0  0  0  0  0  0  0  0  0  0  0  0
    4.8090   30.6750   20.8780 O   0  0  0  0  0  0  0  0  0  0  0  0
   11.4978   31.3304   23.5369 H   0  0  0  0  0  0  0  0  0  0  0  0
   13.1162   31.6665   22.8336 H   0  0  0  0  0  0  0  0  0  0  0  0
   11.8539   32.9445   22.8336 H   0  0  0  0  0  0  0  0  0  0  0  0
   12.0841   31.9402   20.6033 H   0  0  0  0  0  0  0  0  0  0  0  0
   11.7475   30.3001   21.3377 H   0  0  0  0  0  0  0  0  0  0  0  0
    9.5274   30.6602   21.5090 H   0  0  0  0  0  0  0  0  0  0  0  0
    9.7433   32.4572   21.7470 H   0  0  0  0  0  0  0  0  0  0  0  0
    9.0275   31.0043   19.3632 H   0  0  0  0  0  0  0  0  0  0  0  0
    9.1523   32.8000   19.6748 H   0  0  0  0  0  0  0  0  0  0  0  0
   11.5709   32.6713   19.1969 H   0  0  0  0  0  0  0  0  0  0  0  0
   11.2927   30.9104   18.7155 H   0  0  0  0  0  0  0  0  0  0  0  0
   11.4672   32.8376   16.9164 H   0  0  0  0  0  0  0  0  0  0  0  0
   10.3264   31.4172   16.7785 H   0  0  0  0  0  0  0  0  0  0  0  0
    9.0789   33.6167   18.1984 H   0  0  0  0  0  0  0  0  0  0  0  0
    9.6851   34.1391   16.5758 H   0  0  0  0  0  0  0  0  0  0  0  0
    7.3848   32.4743   17.2499 H   0  0  0  0  0  0  0  0  0  0  0  0
    7.8733   33.2016   15.6682 H   0  0  0  0  0  0  0  0  0  0  0  0
    8.2114   31.0936   14.9745 H   0  0  0  0  0  0  0  0  0  0  0  0
    9.6969   31.1486   16.0380 H   0  0  0  0  0  0  0  0  0  0  0  0
    8.7487   29.1986   16.7354 H   0  0  0  0  0  0  0  0  0  0  0  0
    7.9924   30.4398   17.8730 H   0  0  0  0  0  0  0  0  0  0  0  0
    6.3598   30.0024   15.5301 H   0  0  0  0  0  0  0  0  0  0  0  0
    6.6886   28.4623   16.4572 H   0  0  0  0  0  0  0  0  0  0  0  0
    4.8459   29.1337   17.5958 H   0  0  0  0  0  0  0  0  0  0  0  0
    6.0965   30.0747   18.5059 H   0  0  0  0  0  0  0  0  0  0  0  0
    5.4087   31.6878   16.3058 H   0  0  0  0  0  0  0  0  0  0  0  0
    3.8428   30.9963   16.9489 H   0  0  0  0  0  0  0  0  0  0  0  0
    4.9916   33.2780   17.8615 H   0  0  0  0  0  0  0  0  0  0  0  0
    3.9193   32.1488   18.8322 H   0  0  0  0  0  0  0  0  0  0  0  0
    6.5877   31.2245   19.0516 H   0  0  0  0  0  0  0  0  0  0  0  0
    6.5469   33.0289   19.3772 H   0  0  0  0  0  0  0  0  0  0  0  0
  1  2  1  0
  2  3  1  0
  3  4  1  0
  4  5  1  0
  5  6  1  0
  6  7  1  0
  7  8  1  0
  8  9  1  0
  9 10  1  0
 10 11  1  0
 11 12  1  0
 12 13  1  0
 13 14  1  0
 14 15  1  0
 15 16  1  0
 16 17  2  0
 16 18  1  0
  1 19  1  0
  1 20  1  0
  1 21  1  0
  2 22  1  0
  2 23  1  0
  3 24  1  0
  3 25  1  0
  4 26  1  0
  4 27  1  0
  5 28  1  0
  5 29  1  0
  6 30  1  0
  6 31  1  0
  7 32  1  0
  7 33  1  0
  8 34  1  0
  8 35  1  0
  9 36  1  0
  9 37  1  0
 10 38  1  0
 10 39  1  0
 11 40  1  0
 11 41  1  0
 12 42  1  0
 12 43  1  0
 13 44  1  0
 13 45  1  0
 14 46  1  0
 14 47  1  0
 15 48  1  0
 15 49  1  0
M  CHG  1  18  -1
M  END
>  <meeko>  (10) 
{"is_sidechain": [false], "free_energy": -5.628, "intermolecular_energy": -10.569, "internal_energy": -1.666}

$$$$
palmitate_Clobe_run02
     RDKit          3D

 49 48  0  0  0  0  0  0  0  0999 V2000
    5.4180   32.6260   22.3940 C   0  0  0  0  0  0  0  0  0  0  0  0
    6.6000   33.5290   22.7060 C   0  0  0  0  0  0  0  0  0  0  0  0
    7.9100   33.0730   22.0560 C   0  0  0  0  0  0  0  0  0  0  0  0
    9.1340   33.2750   22.9530 C   0  0  0  0  0  0  0  0  0  0  0  0
   10.2810   32.3040   22.6510 C   0  0  0  0  0  0  0  0  0  0  0  0
   10.1940   31.5540   21.3190 C   0  0  0  0  0  0  0  0  0  0  0  0
   11.5180   31.5120   20.5540 C   0  0  0  0  0  0  0  0  0  0  0  0
   11.3020   31.7580   19.0580 C   0  0  0  0  0  0  0  0  0  0  0  0
    9.8100   31.7930   18.7170 C   0  0  0  0  0  0  0  0  0  0  0  0
    9.5190   31.6510   17.2200 C   0  0  0  0  0  0  0  0  0  0  0  0
    8.6360   32.7430   16.6040 C   0  0  0  0  0  0  0  0  0  0  0  0
    7.6720   33.3880   17.6030 C   0  0  0  0  0  0  0  0  0  0  0  0
    6.2420   33.4150   17.0610 C   0  0  0  0  0  0  0  0  0  0  0  0
    5.2530   32.5830   17.8860 C   0  0  0  0  0  0  0  0  0  0  0  0
    5.9050   31.6590   18.9150 C   0  0  0  0  0  0  0  0  0  0  0  0
    6.0420   30.2250   18.4650 C   0  0  0  0  0  0  0  0  0  0  0  0
    5.2500   29.6650   17.7190 O   0  0  0  0  0  0  0  0  0  0  0  0
    7.1220   29.6060   19.0020 O   0  0  0  0  0  0  0  0  0  0  0  0
    4.9637   32.2789   23.3337 H   0  0  0  0  0  0  0  0  0  0  0  0
    4.6722   33.1865   21.8112 H   0  0  0  0  0  0  0  0  0  0  0  0
    5.7627   31.7591   21.8112 H   0  0  0  0  0  0  0  0  0  0  0  0
    6.3678   34.5422   22.3462 H   0  0  0  0  0  0  0  0  0  0  0  0
    6.7521   33.4957   23.7949 H   0  0  0  0  0  0  0  0  0  0  0  0
    7.8263   32.0029   21.8155 H   0  0  0  0  0  0  0  0  0  0  0  0
    8.0595   33.6896   21.1574 H   0  0  0  0  0  0  0  0  0  0  0  0
    9.5018   34.3023   22.8138 H   0  0  0  0  0  0  0  0  0  0  0  0
    8.8121   33.0834   23.9872 H   0  0  0  0  0  0  0  0  0  0  0  0
   11.2182   32.8799   22.6521 H   0  0  0  0  0  0  0  0  0  0  0  0
   10.2265   31.5299   23.4306 H   0  0  0  0  0  0  0  0  0  0  0  0
    9.8761   30.5206   21.5216 H   0  0  0  0  0  0  0  0  0  0  0  0
    9.4737   32.0965   20.6890 H   0  0  0  0  0  0  0  0  0  0  0  0
   12.1872   32.2889   20.9523 H   0  0  0  0  0  0  0  0  0  0  0  0
   11.9624   30.5139   20.6820 H   0  0  0  0  0  0  0  0  0  0  0  0
   11.7565   32.7211   18.7826 H   0  0  0  0  0  0  0  0  0  0  0  0
   11.7703   30.9360   18.4967 H   0  0  0  0  0  0  0  0  0  0  0  0
    9.3127   30.9677   19.2476 H   0  0  0  0  0  0  0  0  0  0  0  0
    9.4316   32.7783   19.0268 H   0  0  0  0  0  0  0  0  0  0  0  0
   10.4815   31.6552   16.6874 H   0  0  0  0  0  0  0  0  0  0  0  0
    8.9523   30.7142   17.1139 H   0  0  0  0  0  0  0  0  0  0  0  0
    9.2887   33.5279   16.1943 H   0  0  0  0  0  0  0  0  0  0  0  0
    8.0222   32.2619   15.8282 H   0  0  0  0  0  0  0  0  0  0  0  0
    7.6888   32.8116   18.5398 H   0  0  0  0  0  0  0  0  0  0  0  0
    7.9960   34.4248   17.7766 H   0  0  0  0  0  0  0  0  0  0  0  0
    5.8942   34.4585   17.0514 H   0  0  0  0  0  0  0  0  0  0  0  0
    6.2720   32.9726   16.0543 H   0  0  0  0  0  0  0  0  0  0  0  0
    4.5844   33.2743   18.4200 H   0  0  0  0  0  0  0  0  0  0  0  0
    4.7216   31.9334   17.1749 H   0  0  0  0  0  0  0  0  0  0  0  0
    6.9097   32.0472   19.1385 H   0  0  0  0  0  0  0  0  0  0  0  0
    5.2438   31.6510   19.7940 H   0  0  0  0  0  0  0  0  0  0  0  0
  1  2  1  0
  2  3  1  0
  3  4  1  0
  4  5  1  0
  5  6  1  0
  6  7  1  0
  7  8  1  0
  8  9  1  0
  9 10  1  0
 10 11  1  0
 11 12  1  0
 12 13  1  0
 13 14  1  0
 14 15  1  0
 15 16  1  0
 16 17  2  0
 16 18  1  0
  1 19  1  0
  1 20  1  0
  1 21  1  0
  2 22  1  0
  2 23  1  0
  3 24  1  0
  3 25  1  0
  4 26  1  0
  4 27  1  0
  5 28  1  0
  5 29  1  0
  6 30  1  0
  6 31  1  0
  7 32  1  0
  7 33  1  0
  8 34  1  0
  8 35  1  0
  9 36  1  0
  9 37  1  0
 10 38  1  0
 10 39  1  0
 11 40  1  0
 11 41  1  0
 12 42  1  0
 12 43  1  0
 13 44  1  0
 13 45  1  0
 14 46  1  0
 14 47  1  0
 15 48  1  0
 15 49  1  0
M  CHG  1  18  -1
M  END
>  <meeko>  (11) 
{"is_sidechain": [false], "free_energy": -5.505, "intermolecular_energy": -10.442, "internal_energy": -1.568}

$$$$
palmitate_Clobe_run02
     RDKit          3D

 49 48  0  0  0  0  0  0  0  0999 V2000
    8.3380   29.3070   17.2950 C   0  0  0  0  0  0  0  0  0  0  0  0
    7.5440   30.3790   16.5650 C   0  0  0  0  0  0  0  0  0  0  0  0
    7.0520   31.5060   17.4780 C   0  0  0  0  0  0  0  0  0  0  0  0
    7.8250   32.8150   17.2940 C   0  0  0  0  0  0  0  0  0  0  0  0
    8.7800   32.7980   16.0940 C   0  0  0  0  0  0  0  0  0  0  0  0
   10.2740   32.8470   16.4250 C   0  0  0  0  0  0  0  0  0  0  0  0
   10.5670   32.8550   17.9270 C   0  0  0  0  0  0  0  0  0  0  0  0
   11.0830   31.4920   18.3970 C   0  0  0  0  0  0  0  0  0  0  0  0
   11.2630   31.4680   19.9170 C   0  0  0  0  0  0  0  0  0  0  0  0
    9.9920   31.8280   20.6920 C   0  0  0  0  0  0  0  0  0  0  0  0
   10.1810   32.1310   22.1830 C   0  0  0  0  0  0  0  0  0  0  0  0
   11.6110   31.8980   22.6790 C   0  0  0  0  0  0  0  0  0  0  0  0
   11.7480   32.2390   24.1640 C   0  0  0  0  0  0  0  0  0  0  0  0
   10.4780   32.8410   24.7790 C   0  0  0  0  0  0  0  0  0  0  0  0
   10.5100   32.9670   26.3020 C   0  0  0  0  0  0  0  0  0  0  0  0
   11.8390   33.4090   26.8630 C   0  0  0  0  0  0  0  0  0  0  0  0
   12.5490   32.7050   27.5690 O   0  0  0  0  0  0  0  0  0  0  0  0
   12.1530   34.6850   26.5310 O   0  0  0  0  0  0  0  0  0  0  0  0
    8.2331   29.4486   18.3808 H   0  0  0  0  0  0  0  0  0  0  0  0
    7.9559   28.3139   17.0161 H   0  0  0  0  0  0  0  0  0  0  0  0
    9.3993   29.3831   17.0161 H   0  0  0  0  0  0  0  0  0  0  0  0
    8.1856   30.8173   15.7863 H   0  0  0  0  0  0  0  0  0  0  0  0
    6.6519   29.8906   16.1460 H   0  0  0  0  0  0  0  0  0  0  0  0
    5.9903   31.6938   17.2599 H   0  0  0  0  0  0  0  0  0  0  0  0
    7.2099   31.1773   18.5158 H   0  0  0  0  0  0  0  0  0  0  0  0
    7.1004   33.6301   17.1508 H   0  0  0  0  0  0  0  0  0  0  0  0
    8.4399   32.9570   18.1949 H   0  0  0  0  0  0  0  0  0  0  0  0
    8.5911   31.8749   15.5265 H   0  0  0  0  0  0  0  0  0  0  0  0
    8.5696   33.7213   15.5343 H   0  0  0  0  0  0  0  0  0  0  0  0
   10.7581   31.9649   15.9806 H   0  0  0  0  0  0  0  0  0  0  0  0
   10.6655   33.7893   16.0142 H   0  0  0  0  0  0  0  0  0  0  0  0
   11.3282   33.6199   18.1402 H   0  0  0  0  0  0  0  0  0  0  0  0
    9.6328   33.0780   18.4633 H   0  0  0  0  0  0  0  0  0  0  0  0
   10.3604   30.7146   18.1080 H   0  0  0  0  0  0  0  0  0  0  0  0
   12.0591   31.3052   17.9255 H   0  0  0  0  0  0  0  0  0  0  0  0
   11.5762   30.4562   20.2139 H   0  0  0  0  0  0  0  0  0  0  0  0
   12.0173   32.2296   20.1640 H   0  0  0  0  0  0  0  0  0  0  0  0
    9.5503   32.7182   20.2204 H   0  0  0  0  0  0  0  0  0  0  0  0
    9.3529   30.9337   20.6483 H   0  0  0  0  0  0  0  0  0  0  0  0
    9.9188   33.1846   22.3598 H   0  0  0  0  0  0  0  0  0  0  0  0
    9.5301   31.4394   22.7380 H   0  0  0  0  0  0  0  0  0  0  0  0
   11.8744   30.8406   22.5286 H   0  0  0  0  0  0  0  0  0  0  0  0
   12.2866   32.5528   22.1092 H   0  0  0  0  0  0  0  0  0  0  0  0
   11.9949   31.3169   24.7106 H   0  0  0  0  0  0  0  0  0  0  0  0
   12.5372   33.0007   24.2471 H   0  0  0  0  0  0  0  0  0  0  0  0
   10.3331   33.8452   24.3541 H   0  0  0  0  0  0  0  0  0  0  0  0
    9.6563   32.1501   24.5393 H   0  0  0  0  0  0  0  0  0  0  0  0
    9.7483   33.7015   26.6025 H   0  0  0  0  0  0  0  0  0  0  0  0
   10.3182   31.9613   26.7043 H   0  0  0  0  0  0  0  0  0  0  0  0
  1  2  1  0
  2  3  1  0
  3  4  1  0
  4  5  1  0
  5  6  1  0
  6  7  1  0
  7  8  1  0
  8  9  1  0
  9 10  1  0
 10 11  1  0
 11 12  1  0
 12 13  1  0
 13 14  1  0
 14 15  1  0
 15 16  1  0
 16 17  2  0
 16 18  1  0
  1 19  1  0
  1 20  1  0
  1 21  1  0
  2 22  1  0
  2 23  1  0
  3 24  1  0
  3 25  1  0
  4 26  1  0
  4 27  1  0
  5 28  1  0
  5 29  1  0
  6 30  1  0
  6 31  1  0
  7 32  1  0
  7 33  1  0
  8 34  1  0
  8 35  1  0
  9 36  1  0
  9 37  1  0
 10 38  1  0
 10 39  1  0
 11 40  1  0
 11 41  1  0
 12 42  1  0
 12 43  1  0
 13 44  1  0
 13 45  1  0
 14 46  1  0
 14 47  1  0
 15 48  1  0
 15 49  1  0
M  CHG  1  18  -1
M  END
>  <meeko>  (12) 
{"is_sidechain": [false], "free_energy": -5.48, "intermolecular_energy": -10.596, "internal_energy": -1.369}

$$$$
palmitate_Clobe_run02
     RDKit          3D

 49 48  0  0  0  0  0  0  0  0999 V2000
   12.9080   35.7470   27.8000 C   0  0  0  0  0  0  0  0  0  0  0  0
   12.4920   34.7270   26.7530 C   0  0  0  0  0  0  0  0  0  0  0  0
   10.9750   34.5710   26.6160 C   0  0  0  0  0  0  0  0  0  0  0  0
   10.5360   33.1280   26.3490 C   0  0  0  0  0  0  0  0  0  0  0  0
   10.4600   32.7780   24.8570 C   0  0  0  0  0  0  0  0  0  0  0  0
   11.7530   32.2540   24.2240 C   0  0  0  0  0  0  0  0  0  0  0  0
   11.5940   31.8500   22.7580 C   0  0  0  0  0  0  0  0  0  0  0  0
   10.1880   32.1680   22.2440 C   0  0  0  0  0  0  0  0  0  0  0  0
    9.9290   31.4910   20.8960 C   0  0  0  0  0  0  0  0  0  0  0  0
    8.5940   31.8870   20.2570 C   0  0  0  0  0  0  0  0  0  0  0  0
    8.6500   32.2660   18.7720 C   0  0  0  0  0  0  0  0  0  0  0  0
    9.5820   31.3760   17.9470 C   0  0  0  0  0  0  0  0  0  0  0  0
    8.8830   30.0870   17.5130 C   0  0  0  0  0  0  0  0  0  0  0  0
    7.7920   30.3020   16.4570 C   0  0  0  0  0  0  0  0  0  0  0  0
    6.4640   29.6120   16.7680 C   0  0  0  0  0  0  0  0  0  0  0  0
    5.6420   30.2940   17.8340 C   0  0  0  0  0  0  0  0  0  0  0  0
    5.0950   31.3790   17.6850 O   0  0  0  0  0  0  0  0  0  0  0  0
    5.5990   29.5940   18.9940 O   0  0  0  0  0  0  0  0  0  0  0  0
   12.7385   35.3315   28.8043 H   0  0  0  0  0  0  0  0  0  0  0  0
   13.9749   35.9847   27.6767 H   0  0  0  0  0  0  0  0  0  0  0  0
   12.3116   36.6631   27.6767 H   0  0  0  0  0  0  0  0  0  0  0  0
   12.8982   35.0419   25.7804 H   0  0  0  0  0  0  0  0  0  0  0  0
   12.8879   33.7532   27.0770 H   0  0  0  0  0  0  0  0  0  0  0  0
   10.5032   34.9125   27.5492 H   0  0  0  0  0  0  0  0  0  0  0  0
   10.6626   35.1722   25.7494 H   0  0  0  0  0  0  0  0  0  0  0  0
   11.2569   32.4501   26.8295 H   0  0  0  0  0  0  0  0  0  0  0  0
    9.5216   33.0169   26.7597 H   0  0  0  0  0  0  0  0  0  0  0  0
    9.6867   32.0059   24.7313 H   0  0  0  0  0  0  0  0  0  0  0  0
   10.2391   33.7241   24.3411 H   0  0  0  0  0  0  0  0  0  0  0  0
   12.5163   33.0436   24.2868 H   0  0  0  0  0  0  0  0  0  0  0  0
   12.0418   31.3495   24.7794 H   0  0  0  0  0  0  0  0  0  0  0  0
   12.3298   32.3998   22.1528 H   0  0  0  0  0  0  0  0  0  0  0  0
   11.7567   30.7651   22.6768 H   0  0  0  0  0  0  0  0  0  0  0  0
    9.4484   31.8087   22.9747 H   0  0  0  0  0  0  0  0  0  0  0  0
   10.1021   33.2565   22.1110 H   0  0  0  0  0  0  0  0  0  0  0  0
   10.7402   31.7676   20.2064 H   0  0  0  0  0  0  0  0  0  0  0  0
    9.8888   30.4075   21.0817 H   0  0  0  0  0  0  0  0  0  0  0  0
    7.9043   31.0366   20.3623 H   0  0  0  0  0  0  0  0  0  0  0  0
    8.2687   32.7957   20.7847 H   0  0  0  0  0  0  0  0  0  0  0  0
    7.6352   32.1879   18.3547 H   0  0  0  0  0  0  0  0  0  0  0  0
    9.0482   33.2898   18.7153 H   0  0  0  0  0  0  0  0  0  0  0  0
    9.9036   31.9277   17.0514 H   0  0  0  0  0  0  0  0  0  0  0  0
   10.4468   31.1075   18.5716 H   0  0  0  0  0  0  0  0  0  0  0  0
    9.6393   29.4051   17.0969 H   0  0  0  0  0  0  0  0  0  0  0  0
    8.3896   29.6733   18.4049 H   0  0  0  0  0  0  0  0  0  0  0  0
    7.6057   31.3827   16.3706 H   0  0  0  0  0  0  0  0  0  0  0  0
    8.1664   29.8541   15.5247 H   0  0  0  0  0  0  0  0  0  0  0  0
    5.8689   29.5785   15.8435 H   0  0  0  0  0  0  0  0  0  0  0  0
    6.7124   28.6125   17.1545 H   0  0  0  0  0  0  0  0  0  0  0  0
  1  2  1  0
  2  3  1  0
  3  4  1  0
  4  5  1  0
  5  6  1  0
  6  7  1  0
  7  8  1  0
  8  9  1  0
  9 10  1  0
 10 11  1  0
 11 12  1  0
 12 13  1  0
 13 14  1  0
 14 15  1  0
 15 16  1  0
 16 17  2  0
 16 18  1  0
  1 19  1  0
  1 20  1  0
  1 21  1  0
  2 22  1  0
  2 23  1  0
  3 24  1  0
  3 25  1  0
  4 26  1  0
  4 27  1  0
  5 28  1  0
  5 29  1  0
  6 30  1  0
  6 31  1  0
  7 32  1  0
  7 33  1  0
  8 34  1  0
  8 35  1  0
  9 36  1  0
  9 37  1  0
 10 38  1  0
 10 39  1  0
 11 40  1  0
 11 41  1  0
 12 42  1  0
 12 43  1  0
 13 44  1  0
 13 45  1  0
 14 46  1  0
 14 47  1  0
 15 48  1  0
 15 49  1  0
M  CHG  1  18  -1
M  END
>  <meeko>  (13) 
{"is_sidechain": [false], "free_energy": -5.456, "intermolecular_energy": -11.051, "internal_energy": -0.87}

$$$$
palmitate_Clobe_run02
     RDKit          3D

 49 48  0  0  0  0  0  0  0  0999 V2000
    8.4500   32.5520   16.6240 C   0  0  0  0  0  0  0  0  0  0  0  0
    8.6220   31.2000   15.9510 C   0  0  0  0  0  0  0  0  0  0  0  0
    8.2500   30.0160   16.8480 C   0  0  0  0  0  0  0  0  0  0  0  0
    6.7820   29.5990   16.7250 C   0  0  0  0  0  0  0  0  0  0  0  0
    5.9870   29.7640   18.0260 C   0  0  0  0  0  0  0  0  0  0  0  0
    4.9680   30.9070   18.0500 C   0  0  0  0  0  0  0  0  0  0  0  0
    5.4500   32.1390   18.8180 C   0  0  0  0  0  0  0  0  0  0  0  0
    6.0950   31.7450   20.1490 C   0  0  0  0  0  0  0  0  0  0  0  0
    7.4960   32.3460   20.2800 C   0  0  0  0  0  0  0  0  0  0  0  0
    8.6210   31.3110   20.1810 C   0  0  0  0  0  0  0  0  0  0  0  0
   10.0270   31.8150   20.5260 C   0  0  0  0  0  0  0  0  0  0  0  0
   10.5050   31.3910   21.9180 C   0  0  0  0  0  0  0  0  0  0  0  0
   10.1690   32.4500   22.9690 C   0  0  0  0  0  0  0  0  0  0  0  0
   11.0480   32.3750   24.2240 C   0  0  0  0  0  0  0  0  0  0  0  0
   10.3460   32.7940   25.5150 C   0  0  0  0  0  0  0  0  0  0  0  0
   11.1070   33.8040   26.3390 C   0  0  0  0  0  0  0  0  0  0  0  0
   12.0860   33.5300   27.0210 O   0  0  0  0  0  0  0  0  0  0  0  0
   10.5730   35.0480   26.2720 O   0  0  0  0  0  0  0  0  0  0  0  0
    8.4665   32.4226   17.7162 H   0  0  0  0  0  0  0  0  0  0  0  0
    9.2705   33.2192   16.3214 H   0  0  0  0  0  0  0  0  0  0  0  0
    7.4886   32.9925   16.3214 H   0  0  0  0  0  0  0  0  0  0  0  0
    7.9822   31.1730   15.0566 H   0  0  0  0  0  0  0  0  0  0  0  0
    9.6892   31.0956   15.7058 H   0  0  0  0  0  0  0  0  0  0  0  0
    8.8807   29.1579   16.5725 H   0  0  0  0  0  0  0  0  0  0  0  0
    8.4119   30.3331   17.8888 H   0  0  0  0  0  0  0  0  0  0  0  0
    6.3088   30.2166   15.9474 H   0  0  0  0  0  0  0  0  0  0  0  0
    6.7703   28.5284   16.4728 H   0  0  0  0  0  0  0  0  0  0  0  0
    5.4440   28.8252   18.2099 H   0  0  0  0  0  0  0  0  0  0  0  0
    6.7301   30.0130   18.7979 H   0  0  0  0  0  0  0  0  0  0  0  0
    4.7546   31.2049   17.0128 H   0  0  0  0  0  0  0  0  0  0  0  0
    4.0737   30.5319   18.5691 H   0  0  0  0  0  0  0  0  0  0  0  0
    6.1895   32.6764   18.2062 H   0  0  0  0  0  0  0  0  0  0  0  0
    4.5811   32.7798   19.0285 H   0  0  0  0  0  0  0  0  0  0  0  0
    5.4678   32.1118   20.9749 H   0  0  0  0  0  0  0  0  0  0  0  0
    6.1796   30.6489   20.1859 H   0  0  0  0  0  0  0  0  0  0  0  0
    7.6330   33.0859   19.4777 H   0  0  0  0  0  0  0  0  0  0  0  0
    7.5605   32.7966   21.2814 H   0  0  0  0  0  0  0  0  0  0  0  0
    8.3810   30.4857   20.8675 H   0  0  0  0  0  0  0  0  0  0  0  0
    8.6620   31.0165   19.1220 H   0  0  0  0  0  0  0  0  0  0  0  0
   10.7316   31.4181   19.7803 H   0  0  0  0  0  0  0  0  0  0  0  0
    9.9867   32.9142   20.5193 H   0  0  0  0  0  0  0  0  0  0  0  0
   10.0141   30.4457   22.1926 H   0  0  0  0  0  0  0  0  0  0  0  0
   11.5977   31.2682   21.8867 H   0  0  0  0  0  0  0  0  0  0  0  0
   10.2972   33.4433   22.5142 H   0  0  0  0  0  0  0  0  0  0  0  0
    9.1334   32.2658   23.2908 H   0  0  0  0  0  0  0  0  0  0  0  0
   11.3918   31.3367   24.3412 H   0  0  0  0  0  0  0  0  0  0  0  0
   11.8729   33.0864   24.0713 H   0  0  0  0  0  0  0  0  0  0  0  0
    9.3713   33.2299   25.2507 H   0  0  0  0  0  0  0  0  0  0  0  0
   10.2573   31.8880   26.1324 H   0  0  0  0  0  0  0  0  0  0  0  0
  1  2  1  0
  2  3  1  0
  3  4  1  0
  4  5  1  0
  5  6  1  0
  6  7  1  0
  7  8  1  0
  8  9  1  0
  9 10  1  0
 10 11  1  0
 11 12  1  0
 12 13  1  0
 13 14  1  0
 14 15  1  0
 15 16  1  0
 16 17  2  0
 16 18  1  0
  1 19  1  0
  1 20  1  0
  1 21  1  0
  2 22  1  0
  2 23  1  0
  3 24  1  0
  3 25  1  0
  4 26  1  0
  4 27  1  0
  5 28  1  0
  5 29  1  0
  6 30  1  0
  6 31  1  0
  7 32  1  0
  7 33  1  0
  8 34  1  0
  8 35  1  0
  9 36  1  0
  9 37  1  0
 10 38  1  0
 10 39  1  0
 11 40  1  0
 11 41  1  0
 12 42  1  0
 12 43  1  0
 13 44  1  0
 13 45  1  0
 14 46  1  0
 14 47  1  0
 15 48  1  0
 15 49  1  0
M  CHG  1  18  -1
M  END
>  <meeko>  (14) 
{"is_sidechain": [false], "free_energy": -5.416, "intermolecular_energy": -10.32, "internal_energy": -1.527}

$$$$
palmitate_Clobe_run02
     RDKit          3D

 49 48  0  0  0  0  0  0  0  0999 V2000
    5.1940   31.4630   19.5690 C   0  0  0  0  0  0  0  0  0  0  0  0
    6.1530   31.9390   20.6490 C   0  0  0  0  0  0  0  0  0  0  0  0
    5.4510   32.5250   21.8780 C   0  0  0  0  0  0  0  0  0  0  0  0
    6.3760   33.3700   22.7580 C   0  0  0  0  0  0  0  0  0  0  0  0
    7.8330   33.3830   22.2790 C   0  0  0  0  0  0  0  0  0  0  0  0
    8.8990   33.4820   23.3740 C   0  0  0  0  0  0  0  0  0  0  0  0
   10.1110   32.5810   23.1300 C   0  0  0  0  0  0  0  0  0  0  0  0
   10.0640   31.9560   21.7340 C   0  0  0  0  0  0  0  0  0  0  0  0
   11.4380   31.4180   21.3260 C   0  0  0  0  0  0  0  0  0  0  0  0
   11.6890   31.4590   19.8160 C   0  0  0  0  0  0  0  0  0  0  0  0
   10.4710   31.7800   18.9420 C   0  0  0  0  0  0  0  0  0  0  0  0
   10.7460   32.8440   17.8760 C   0  0  0  0  0  0  0  0  0  0  0  0
    9.4520   33.3130   17.2100 C   0  0  0  0  0  0  0  0  0  0  0  0
    8.7940   32.2500   16.3210 C   0  0  0  0  0  0  0  0  0  0  0  0
    7.5840   31.5600   16.9490 C   0  0  0  0  0  0  0  0  0  0  0  0
    7.5530   30.0630   16.7590 C   0  0  0  0  0  0  0  0  0  0  0  0
    8.5450   29.3480   16.8100 O   0  0  0  0  0  0  0  0  0  0  0  0
    6.3110   29.5920   16.4910 O   0  0  0  0  0  0  0  0  0  0  0  0
    4.3031   31.0208   20.0387 H   0  0  0  0  0  0  0  0  0  0  0  0
    4.8933   32.3165   18.9435 H   0  0  0  0  0  0  0  0  0  0  0  0
    5.6919   30.7075   18.9435 H   0  0  0  0  0  0  0  0  0  0  0  0
    6.7644   31.0838   20.9726 H   0  0  0  0  0  0  0  0  0  0  0  0
    6.7595   32.7445   20.2094 H   0  0  0  0  0  0  0  0  0  0  0  0
    4.6194   33.1587   21.5361 H   0  0  0  0  0  0  0  0  0  0  0  0
    5.1032   31.6790   22.4890 H   0  0  0  0  0  0  0  0  0  0  0  0
    6.0021   34.4045   22.7634 H   0  0  0  0  0  0  0  0  0  0  0  0
    6.3694   32.9186   23.7611 H   0  0  0  0  0  0  0  0  0  0  0  0
    8.0114   32.4533   21.7188 H   0  0  0  0  0  0  0  0  0  0  0  0
    7.9394   34.2982   21.6781 H   0  0  0  0  0  0  0  0  0  0  0  0
    9.2457   34.5245   23.4289 H   0  0  0  0  0  0  0  0  0  0  0  0
    8.4312   33.1476   24.3117 H   0  0  0  0  0  0  0  0  0  0  0  0
   11.0285   33.1805   23.2240 H   0  0  0  0  0  0  0  0  0  0  0  0
   10.0986   31.7714   23.8746 H   0  0  0  0  0  0  0  0  0  0  0  0
    9.3396   31.1282   21.7349 H   0  0  0  0  0  0  0  0  0  0  0  0
    9.7636   32.7310   21.0135 H   0  0  0  0  0  0  0  0  0  0  0  0
   12.2101   32.0233   21.8234 H   0  0  0  0  0  0  0  0  0  0  0  0
   11.4740   30.3615   21.6303 H   0  0  0  0  0  0  0  0  0  0  0  0
   12.4538   32.2255   19.6224 H   0  0  0  0  0  0  0  0  0  0  0  0
   11.9940   30.4394   19.5377 H   0  0  0  0  0  0  0  0  0  0  0  0
   10.1517   30.8562   18.4373 H   0  0  0  0  0  0  0  0  0  0  0  0
    9.6932   32.1829   19.6074 H   0  0  0  0  0  0  0  0  0  0  0  0
   11.2379   33.7064   18.3495 H   0  0  0  0  0  0  0  0  0  0  0  0
   11.3926   32.4018   17.1038 H   0  0  0  0  0  0  0  0  0  0  0  0
    8.7388   33.5960   17.9982 H   0  0  0  0  0  0  0  0  0  0  0  0
    9.7151   34.1587   16.5577 H   0  0  0  0  0  0  0  0  0  0  0  0
    8.4677   32.7353   15.3893 H   0  0  0  0  0  0  0  0  0  0  0  0
    9.5499   31.4679   16.1565 H   0  0  0  0  0  0  0  0  0  0  0  0
    7.5900   31.7699   18.0288 H   0  0  0  0  0  0  0  0  0  0  0  0
    6.6947   31.9600   16.4399 H   0  0  0  0  0  0  0  0  0  0  0  0
  1  2  1  0
  2  3  1  0
  3  4  1  0
  4  5  1  0
  5  6  1  0
  6  7  1  0
  7  8  1  0
  8  9  1  0
  9 10  1  0
 10 11  1  0
 11 12  1  0
 12 13  1  0
 13 14  1  0
 14 15  1  0
 15 16  1  0
 16 17  2  0
 16 18  1  0
  1 19  1  0
  1 20  1  0
  1 21  1  0
  2 22  1  0
  2 23  1  0
  3 24  1  0
  3 25  1  0
  4 26  1  0
  4 27  1  0
  5 28  1  0
  5 29  1  0
  6 30  1  0
  6 31  1  0
  7 32  1  0
  7 33  1  0
  8 34  1  0
  8 35  1  0
  9 36  1  0
  9 37  1  0
 10 38  1  0
 10 39  1  0
 11 40  1  0
 11 41  1  0
 12 42  1  0
 12 43  1  0
 13 44  1  0
 13 45  1  0
 14 46  1  0
 14 47  1  0
 15 48  1  0
 15 49  1  0
M  CHG  1  18  -1
M  END
>  <meeko>  (15) 
{"is_sidechain": [false], "free_energy": -5.405, "intermolecular_energy": -10.611, "internal_energy": -1.217}

$$$$
palmitate_Clobe_run02
     RDKit          3D

 49 48  0  0  0  0  0  0  0  0999 V2000
   10.4210   31.7810   19.5880 C   0  0  0  0  0  0  0  0  0  0  0  0
   11.0570   31.4560   20.9300 C   0  0  0  0  0  0  0  0  0  0  0  0
   10.0640   31.4580   22.0970 C   0  0  0  0  0  0  0  0  0  0  0  0
   10.2060   32.6790   23.0100 C   0  0  0  0  0  0  0  0  0  0  0  0
    8.9030   33.4710   23.1800 C   0  0  0  0  0  0  0  0  0  0  0  0
    7.8710   33.3140   22.0600 C   0  0  0  0  0  0  0  0  0  0  0  0
    6.4240   33.3240   22.5560 C   0  0  0  0  0  0  0  0  0  0  0  0
    5.5720   32.3040   21.7970 C   0  0  0  0  0  0  0  0  0  0  0  0
    6.1760   31.9950   20.4250 C   0  0  0  0  0  0  0  0  0  0  0  0
    5.1370   31.8880   19.3050 C   0  0  0  0  0  0  0  0  0  0  0  0
    5.6470   31.3380   17.9680 C   0  0  0  0  0  0  0  0  0  0  0  0
    6.1190   29.8830   18.0450 C   0  0  0  0  0  0  0  0  0  0  0  0
    6.9900   29.5160   16.8420 C   0  0  0  0  0  0  0  0  0  0  0  0
    8.3770   30.1700   16.8620 C   0  0  0  0  0  0  0  0  0  0  0  0
    8.5990   31.2200   15.7740 C   0  0  0  0  0  0  0  0  0  0  0  0
    9.1800   32.5200   16.2720 C   0  0  0  0  0  0  0  0  0  0  0  0
   10.3350   32.8730   16.0720 O   0  0  0  0  0  0  0  0  0  0  0  0
    8.2970   33.2480   16.9990 O   0  0  0  0  0  0  0  0  0  0  0  0
    9.4524   32.2760   19.7516 H   0  0  0  0  0  0  0  0  0  0  0  0
   11.0839   32.4509   19.0207 H   0  0  0  0  0  0  0  0  0  0  0  0
   10.2665   30.8513   19.0207 H   0  0  0  0  0  0  0  0  0  0  0  0
   11.5150   30.4580   20.8650 H   0  0  0  0  0  0  0  0  0  0  0  0
   11.7968   32.2438   21.1351 H   0  0  0  0  0  0  0  0  0  0  0  0
    9.0433   31.4452   21.6871 H   0  0  0  0  0  0  0  0  0  0  0  0
   10.2763   30.5679   22.7074 H   0  0  0  0  0  0  0  0  0  0  0  0
   10.5367   32.3358   24.0014 H   0  0  0  0  0  0  0  0  0  0  0  0
   10.9352   33.3534   22.5373 H   0  0  0  0  0  0  0  0  0  0  0  0
    8.4320   33.1463   24.1195 H   0  0  0  0  0  0  0  0  0  0  0  0
    9.1964   34.5311   23.1663 H   0  0  0  0  0  0  0  0  0  0  0  0
    8.0007   34.1430   21.3487 H   0  0  0  0  0  0  0  0  0  0  0  0
    8.0461   32.3328   21.5947 H   0  0  0  0  0  0  0  0  0  0  0  0
    6.4103   33.0764   23.6277 H   0  0  0  0  0  0  0  0  0  0  0  0
    6.0036   34.3259   22.3841 H   0  0  0  0  0  0  0  0  0  0  0  0
    5.5169   31.3747   22.3830 H   0  0  0  0  0  0  0  0  0  0  0  0
    4.5677   32.7278   21.6496 H   0  0  0  0  0  0  0  0  0  0  0  0
    6.8825   32.7979   20.1678 H   0  0  0  0  0  0  0  0  0  0  0  0
    6.6665   31.0135   20.5033 H   0  0  0  0  0  0  0  0  0  0  0  0
    4.3306   31.2271   19.6556 H   0  0  0  0  0  0  0  0  0  0  0  0
    4.8147   32.9193   19.0988 H   0  0  0  0  0  0  0  0  0  0  0  0
    4.8318   31.4009   17.2321 H   0  0  0  0  0  0  0  0  0  0  0  0
    6.5177   31.9453   17.6798 H   0  0  0  0  0  0  0  0  0  0  0  0
    6.7039   29.7444   18.9663 H   0  0  0  0  0  0  0  0  0  0  0  0
    5.2334   29.2305   18.0440 H   0  0  0  0  0  0  0  0  0  0  0  0
    7.1213   28.4239   16.8287 H   0  0  0  0  0  0  0  0  0  0  0  0
    6.4725   29.8878   15.9454 H   0  0  0  0  0  0  0  0  0  0  0  0
    8.5142   30.6545   17.8400 H   0  0  0  0  0  0  0  0  0  0  0  0
    9.1042   29.3664   16.6739 H   0  0  0  0  0  0  0  0  0  0  0  0
    9.2871   30.7999   15.0257 H   0  0  0  0  0  0  0  0  0  0  0  0
    7.6080   31.4573   15.3597 H   0  0  0  0  0  0  0  0  0  0  0  0
  1  2  1  0
  2  3  1  0
  3  4  1  0
  4  5  1  0
  5  6  1  0
  6  7  1  0
  7  8  1  0
  8  9  1  0
  9 10  1  0
 10 11  1  0
 11 12  1  0
 12 13  1  0
 13 14  1  0
 14 15  1  0
 15 16  1  0
 16 17  2  0
 16 18  1  0
  1 19  1  0
  1 20  1  0
  1 21  1  0
  2 22  1  0
  2 23  1  0
  3 24  1  0
  3 25  1  0
  4 26  1  0
  4 27  1  0
  5 28  1  0
  5 29  1  0
  6 30  1  0
  6 31  1  0
  7 32  1  0
  7 33  1  0
  8 34  1  0
  8 35  1  0
  9 36  1  0
  9 37  1  0
 10 38  1  0
 10 39  1  0
 11 40  1  0
 11 41  1  0
 12 42  1  0
 12 43  1  0
 13 44  1  0
 13 45  1  0
 14 46  1  0
 14 47  1  0
 15 48  1  0
 15 49  1  0
M  CHG  1  18  -1
M  END
>  <meeko>  (16) 
{"is_sidechain": [false], "free_energy": -5.399, "intermolecular_energy": -10.397, "internal_energy": -1.42}

$$$$
palmitate_Clobe_run02
     RDKit          3D

 49 48  0  0  0  0  0  0  0  0999 V2000
    5.4820   31.7350   19.9970 C   0  0  0  0  0  0  0  0  0  0  0  0
    5.1820   32.1430   18.5630 C   0  0  0  0  0  0  0  0  0  0  0  0
    5.4410   31.0310   17.5430 C   0  0  0  0  0  0  0  0  0  0  0  0
    5.9460   29.7320   18.1770 C   0  0  0  0  0  0  0  0  0  0  0  0
    7.4180   29.4320   17.8690 C   0  0  0  0  0  0  0  0  0  0  0  0
    8.1240   30.4210   16.9370 C   0  0  0  0  0  0  0  0  0  0  0  0
    9.3420   31.0960   17.5710 C   0  0  0  0  0  0  0  0  0  0  0  0
    9.0890   31.4230   19.0450 C   0  0  0  0  0  0  0  0  0  0  0  0
   10.3810   31.8560   19.7410 C   0  0  0  0  0  0  0  0  0  0  0  0
   10.3890   31.5830   21.2480 C   0  0  0  0  0  0  0  0  0  0  0  0
   11.7690   31.4010   21.8880 C   0  0  0  0  0  0  0  0  0  0  0  0
   11.9490   32.1870   23.1900 C   0  0  0  0  0  0  0  0  0  0  0  0
   10.6960   32.1130   24.0630 C   0  0  0  0  0  0  0  0  0  0  0  0
   10.7350   33.0480   25.2790 C   0  0  0  0  0  0  0  0  0  0  0  0
   12.0510   33.0250   26.0550 C   0  0  0  0  0  0  0  0  0  0  0  0
   11.8910   32.9230   27.5510 C   0  0  0  0  0  0  0  0  0  0  0  0
   10.8110   32.8120   28.1160 O   0  0  0  0  0  0  0  0  0  0  0  0
   13.0710   33.0000   28.2140 O   0  0  0  0  0  0  0  0  0  0  0  0
    4.9750   32.4245   20.6881 H   0  0  0  0  0  0  0  0  0  0  0  0
    5.1204   30.7107   20.1701 H   0  0  0  0  0  0  0  0  0  0  0  0
    6.5676   31.7748   20.1701 H   0  0  0  0  0  0  0  0  0  0  0  0
    4.1233   32.4345   18.4985 H   0  0  0  0  0  0  0  0  0  0  0  0
    5.8600   32.9729   18.3149 H   0  0  0  0  0  0  0  0  0  0  0  0
    4.5011   30.8181   17.0126 H   0  0  0  0  0  0  0  0  0  0  0  0
    6.2287   31.3893   16.8639 H   0  0  0  0  0  0  0  0  0  0  0  0
    5.8272   29.8080   19.2679 H   0  0  0  0  0  0  0  0  0  0  0  0
    5.3523   28.9111   17.7485 H   0  0  0  0  0  0  0  0  0  0  0  0
    7.9655   29.4190   18.8229 H   0  0  0  0  0  0  0  0  0  0  0  0
    7.4193   28.4697   17.3361 H   0  0  0  0  0  0  0  0  0  0  0  0
    8.4551   29.8778   16.0396 H   0  0  0  0  0  0  0  0  0  0  0  0
    7.4006   31.2155   16.7014 H   0  0  0  0  0  0  0  0  0  0  0  0
   10.2062   30.4196   17.4968 H   0  0  0  0  0  0  0  0  0  0  0  0
    9.5380   32.0360   17.0343 H   0  0  0  0  0  0  0  0  0  0  0  0
    8.3540   32.2387   19.1113 H   0  0  0  0  0  0  0  0  0  0  0  0
    8.7085   30.5194   19.5438 H   0  0  0  0  0  0  0  0  0  0  0  0
   11.2207   31.3113   19.2848 H   0  0  0  0  0  0  0  0  0  0  0  0
   10.4673   32.9449   19.6108 H   0  0  0  0  0  0  0  0  0  0  0  0
    9.8954   32.4302   21.7466 H   0  0  0  0  0  0  0  0  0  0  0  0
    9.8711   30.6214   21.3789 H   0  0  0  0  0  0  0  0  0  0  0  0
   11.9140   30.3322   22.1040 H   0  0  0  0  0  0  0  0  0  0  0  0
   12.5100   31.7873   21.1727 H   0  0  0  0  0  0  0  0  0  0  0  0
   12.7991   31.7667   23.7474 H   0  0  0  0  0  0  0  0  0  0  0  0
   12.1325   33.2414   22.9358 H   0  0  0  0  0  0  0  0  0  0  0  0
    9.8263   32.3823   23.4457 H   0  0  0  0  0  0  0  0  0  0  0  0
   10.6341   31.0851   24.4499 H   0  0  0  0  0  0  0  0  0  0  0  0
   10.5615   34.0758   24.9276 H   0  0  0  0  0  0  0  0  0  0  0  0
    9.9577   32.6927   25.9715 H   0  0  0  0  0  0  0  0  0  0  0  0
   12.6374   32.1598   25.7121 H   0  0  0  0  0  0  0  0  0  0  0  0
   12.5484   33.9860   25.8575 H   0  0  0  0  0  0  0  0  0  0  0  0
  1  2  1  0
  2  3  1  0
  3  4  1  0
  4  5  1  0
  5  6  1  0
  6  7  1  0
  7  8  1  0
  8  9  1  0
  9 10  1  0
 10 11  1  0
 11 12  1  0
 12 13  1  0
 13 14  1  0
 14 15  1  0
 15 16  1  0
 16 17  2  0
 16 18  1  0
  1 19  1  0
  1 20  1  0
  1 21  1  0
  2 22  1  0
  2 23  1  0
  3 24  1  0
  3 25  1  0
  4 26  1  0
  4 27  1  0
  5 28  1  0
  5 29  1  0
  6 30  1  0
  6 31  1  0
  7 32  1  0
  7 33  1  0
  8 34  1  0
  8 35  1  0
  9 36  1  0
  9 37  1  0
 10 38  1  0
 10 39  1  0
 11 40  1  0
 11 41  1  0
 12 42  1  0
 12 43  1  0
 13 44  1  0
 13 45  1  0
 14 46  1  0
 14 47  1  0
 15 48  1  0
 15 49  1  0
M  CHG  1  18  -1
M  END
>  <meeko>  (17) 
{"is_sidechain": [false], "free_energy": -5.359, "intermolecular_energy": -10.721, "internal_energy": -1.024}

$$$$
palmitate_Clobe_run02
     RDKit          3D

 49 48  0  0  0  0  0  0  0  0999 V2000
   11.1470   31.7430   19.2050 C   0  0  0  0  0  0  0  0  0  0  0  0
    9.7710   32.1240   18.6810 C   0  0  0  0  0  0  0  0  0  0  0  0
    9.8130   33.0940   17.4960 C   0  0  0  0  0  0  0  0  0  0  0  0
    8.6100   32.9560   16.5580 C   0  0  0  0  0  0  0  0  0  0  0  0
    7.4320   32.1960   17.1810 C   0  0  0  0  0  0  0  0  0  0  0  0
    6.1220   32.9790   17.3130 C   0  0  0  0  0  0  0  0  0  0  0  0
    4.9470   32.1260   17.7940 C   0  0  0  0  0  0  0  0  0  0  0  0
    5.4000   31.0920   18.8280 C   0  0  0  0  0  0  0  0  0  0  0  0
    5.2140   31.6200   20.2520 C   0  0  0  0  0  0  0  0  0  0  0  0
    6.4940   32.1950   20.8660 C   0  0  0  0  0  0  0  0  0  0  0  0
    6.3220   32.9400   22.1950 C   0  0  0  0  0  0  0  0  0  0  0  0
    7.5720   33.7110   22.6300 C   0  0  0  0  0  0  0  0  0  0  0  0
    8.8500   32.9840   22.2080 C   0  0  0  0  0  0  0  0  0  0  0  0
    9.8950   32.8730   23.3250 C   0  0  0  0  0  0  0  0  0  0  0  0
   11.0790   31.9640   22.9970 C   0  0  0  0  0  0  0  0  0  0  0  0
   12.3040   32.2070   23.8430 C   0  0  0  0  0  0  0  0  0  0  0  0
   12.2710   32.6710   24.9760 O   0  0  0  0  0  0  0  0  0  0  0  0
   13.4570   31.8890   23.2050 O   0  0  0  0  0  0  0  0  0  0  0  0
   11.1344   31.7465   20.3049 H   0  0  0  0  0  0  0  0  0  0  0  0
   11.4112   30.7379   18.8445 H   0  0  0  0  0  0  0  0  0  0  0  0
   11.8906   32.4690   18.8445 H   0  0  0  0  0  0  0  0  0  0  0  0
    9.2543   31.2069   18.3616 H   0  0  0  0  0  0  0  0  0  0  0  0
    9.2449   32.6372   19.4994 H   0  0  0  0  0  0  0  0  0  0  0  0
    9.8351   34.1220   17.8868 H   0  0  0  0  0  0  0  0  0  0  0  0
   10.7126   32.8542   16.9101 H   0  0  0  0  0  0  0  0  0  0  0  0
    8.2668   33.9638   16.2814 H   0  0  0  0  0  0  0  0  0  0  0  0
    8.9448   32.3751   15.6859 H   0  0  0  0  0  0  0  0  0  0  0  0
    7.2342   31.3119   16.5571 H   0  0  0  0  0  0  0  0  0  0  0  0
    7.7418   31.9608   18.2099 H   0  0  0  0  0  0  0  0  0  0  0  0
    6.2761   33.7967   18.0325 H   0  0  0  0  0  0  0  0  0  0  0  0
    5.8638   33.3490   16.3098 H   0  0  0  0  0  0  0  0  0  0  0  0
    4.1906   32.7817   18.2499 H   0  0  0  0  0  0  0  0  0  0  0  0
    4.5269   31.5923   16.9287 H   0  0  0  0  0  0  0  0  0  0  0  0
    4.8049   30.1752   18.7040 H   0  0  0  0  0  0  0  0  0  0  0  0
    6.4683   30.8835   18.6691 H   0  0  0  0  0  0  0  0  0  0  0  0
    4.4516   32.4127   20.2319 H   0  0  0  0  0  0  0  0  0  0  0  0
    4.9133   30.7653   20.8757 H   0  0  0  0  0  0  0  0  0  0  0  0
    7.1912   31.3611   21.0347 H   0  0  0  0  0  0  0  0  0  0  0  0
    6.8578   32.9453   20.1486 H   0  0  0  0  0  0  0  0  0  0  0  0
    5.4920   33.6540   22.0889 H   0  0  0  0  0  0  0  0  0  0  0  0
    6.1245   32.1821   22.9674 H   0  0  0  0  0  0  0  0  0  0  0  0
    7.5573   34.7081   22.1657 H   0  0  0  0  0  0  0  0  0  0  0  0
    7.5652   33.7916   23.7270 H   0  0  0  0  0  0  0  0  0  0  0  0
    8.5803   31.9683   21.8829 H   0  0  0  0  0  0  0  0  0  0  0  0
    9.3048   33.5768   21.4007 H   0  0  0  0  0  0  0  0  0  0  0  0
   10.2831   33.8809   23.5338 H   0  0  0  0  0  0  0  0  0  0  0  0
    9.3837   32.4217   24.1881 H   0  0  0  0  0  0  0  0  0  0  0  0
   10.7622   30.9206   23.1419 H   0  0  0  0  0  0  0  0  0  0  0  0
   11.3659   32.1846   21.9583 H   0  0  0  0  0  0  0  0  0  0  0  0
  1  2  1  0
  2  3  1  0
  3  4  1  0
  4  5  1  0
  5  6  1  0
  6  7  1  0
  7  8  1  0
  8  9  1  0
  9 10  1  0
 10 11  1  0
 11 12  1  0
 12 13  1  0
 13 14  1  0
 14 15  1  0
 15 16  1  0
 16 17  2  0
 16 18  1  0
  1 19  1  0
  1 20  1  0
  1 21  1  0
  2 22  1  0
  2 23  1  0
  3 24  1  0
  3 25  1  0
  4 26  1  0
  4 27  1  0
  5 28  1  0
  5 29  1  0
  6 30  1  0
  6 31  1  0
  7 32  1  0
  7 33  1  0
  8 34  1  0
  8 35  1  0
  9 36  1  0
  9 37  1  0
 10 38  1  0
 10 39  1  0
 11 40  1  0
 11 41  1  0
 12 42  1  0
 12 43  1  0
 13 44  1  0
 13 45  1  0
 14 46  1  0
 14 47  1  0
 15 48  1  0
 15 49  1  0
M  CHG  1  18  -1
M  END
>  <meeko>  (18) 
{"is_sidechain": [false], "free_energy": -5.345, "intermolecular_energy": -10.377, "internal_energy": -1.342}

$$$$
palmitate_Clobe_run02
     RDKit          3D

 49 48  0  0  0  0  0  0  0  0999 V2000
    8.2300   33.2700   22.1770 C   0  0  0  0  0  0  0  0  0  0  0  0
    7.8680   32.5240   20.9030 C   0  0  0  0  0  0  0  0  0  0  0  0
    8.8840   31.4460   20.5130 C   0  0  0  0  0  0  0  0  0  0  0  0
   10.3160   31.9790   20.3950 C   0  0  0  0  0  0  0  0  0  0  0  0
   10.9440   31.7460   19.0160 C   0  0  0  0  0  0  0  0  0  0  0  0
   10.7900   32.8880   18.0070 C   0  0  0  0  0  0  0  0  0  0  0  0
    9.3880   32.9830   17.4020 C   0  0  0  0  0  0  0  0  0  0  0  0
    9.3880   32.5460   15.9350 C   0  0  0  0  0  0  0  0  0  0  0  0
    8.5470   31.2820   15.7380 C   0  0  0  0  0  0  0  0  0  0  0  0
    8.4780   30.3910   16.9820 C   0  0  0  0  0  0  0  0  0  0  0  0
    7.2480   29.4810   17.0860 C   0  0  0  0  0  0  0  0  0  0  0  0
    5.9190   30.2360   16.9970 C   0  0  0  0  0  0  0  0  0  0  0  0
    5.4540   30.7080   18.3750 C   0  0  0  0  0  0  0  0  0  0  0  0
    5.2100   32.2200   18.4600 C   0  0  0  0  0  0  0  0  0  0  0  0
    5.6780   33.0070   17.2360 C   0  0  0  0  0  0  0  0  0  0  0  0
    4.6110   33.8660   16.6030 C   0  0  0  0  0  0  0  0  0  0  0  0
    4.8450   34.8710   15.9440 O   0  0  0  0  0  0  0  0  0  0  0  0
    3.3560   33.4270   16.8680 O   0  0  0  0  0  0  0  0  0  0  0  0
    7.9379   32.6680   23.0500 H   0  0  0  0  0  0  0  0  0  0  0  0
    9.3151   33.4488   22.2014 H   0  0  0  0  0  0  0  0  0  0  0  0
    7.6990   34.2330   22.2014 H   0  0  0  0  0  0  0  0  0  0  0  0
    6.8893   32.0432   21.0479 H   0  0  0  0  0  0  0  0  0  0  0  0
    7.8547   33.2638   20.0891 H   0  0  0  0  0  0  0  0  0  0  0  0
    8.8670   30.6565   21.2787 H   0  0  0  0  0  0  0  0  0  0  0  0
    8.5939   31.0673   19.5218 H   0  0  0  0  0  0  0  0  0  0  0  0
   10.3021   33.0610   20.5928 H   0  0  0  0  0  0  0  0  0  0  0  0
   10.9270   31.4288   21.1257 H   0  0  0  0  0  0  0  0  0  0  0  0
   12.0197   31.5683   19.1617 H   0  0  0  0  0  0  0  0  0  0  0  0
   10.4016   30.8925   18.5833 H   0  0  0  0  0  0  0  0  0  0  0  0
   11.0138   33.8363   18.5176 H   0  0  0  0  0  0  0  0  0  0  0  0
   11.4862   32.6850   17.1799 H   0  0  0  0  0  0  0  0  0  0  0  0
    8.7070   32.3324   17.9703 H   0  0  0  0  0  0  0  0  0  0  0  0
    9.0563   34.0305   17.4536 H   0  0  0  0  0  0  0  0  0  0  0  0
    8.9700   33.3556   15.3187 H   0  0  0  0  0  0  0  0  0  0  0  0
   10.4235   32.3278   15.6348 H   0  0  0  0  0  0  0  0  0  0  0  0
    7.5239   31.5835   15.4691 H   0  0  0  0  0  0  0  0  0  0  0  0
    9.0315   30.6926   14.9457 H   0  0  0  0  0  0  0  0  0  0  0  0
    9.3725   29.7508   16.9882 H   0  0  0  0  0  0  0  0  0  0  0  0
    8.4129   31.0789   17.8379 H   0  0  0  0  0  0  0  0  0  0  0  0
    7.2873   28.7479   16.2668 H   0  0  0  0  0  0  0  0  0  0  0  0
    7.2824   29.0032   18.0762 H   0  0  0  0  0  0  0  0  0  0  0  0
    6.0473   31.1112   16.3431 H   0  0  0  0  0  0  0  0  0  0  0  0
    5.1588   29.5533   16.5894 H   0  0  0  0  0  0  0  0  0  0  0  0
    4.5149   30.1905   18.6205 H   0  0  0  0  0  0  0  0  0  0  0  0
    6.2612   30.4727   19.0842 H   0  0  0  0  0  0  0  0  0  0  0  0
    4.1299   32.3874   18.5838 H   0  0  0  0  0  0  0  0  0  0  0  0
    5.8021   32.5852   19.3121 H   0  0  0  0  0  0  0  0  0  0  0  0
    6.5081   33.6600   17.5434 H   0  0  0  0  0  0  0  0  0  0  0  0
    5.9740   32.2652   16.4797 H   0  0  0  0  0  0  0  0  0  0  0  0
  1  2  1  0
  2  3  1  0
  3  4  1  0
  4  5  1  0
  5  6  1  0
  6  7  1  0
  7  8  1  0
  8  9  1  0
  9 10  1  0
 10 11  1  0
 11 12  1  0
 12 13  1  0
 13 14  1  0
 14 15  1  0
 15 16  1  0
 16 17  2  0
 16 18  1  0
  1 19  1  0
  1 20  1  0
  1 21  1  0
  2 22  1  0
  2 23  1  0
  3 24  1  0
  3 25  1  0
  4 26  1  0
  4 27  1  0
  5 28  1  0
  5 29  1  0
  6 30  1  0
  6 31  1  0
  7 32  1  0
  7 33  1  0
  8 34  1  0
  8 35  1  0
  9 36  1  0
  9 37  1  0
 10 38  1  0
 10 39  1  0
 11 40  1  0
 11 41  1  0
 12 42  1  0
 12 43  1  0
 13 44  1  0
 13 45  1  0
 14 46  1  0
 14 47  1  0
 15 48  1  0
 15 49  1  0
M  CHG  1  18  -1
M  END
>  <meeko>  (19) 
{"is_sidechain": [false], "free_energy": -5.336, "intermolecular_energy": -9.738, "internal_energy": -1.965}

$$$$
palmitate_Clobe_run02
     RDKit          3D

 49 48  0  0  0  0  0  0  0  0999 V2000
    5.5900   31.8550   20.5010 C   0  0  0  0  0  0  0  0  0  0  0  0
    5.4110   31.3560   19.0760 C   0  0  0  0  0  0  0  0  0  0  0  0
    6.4550   30.3180   18.6530 C   0  0  0  0  0  0  0  0  0  0  0  0
    6.5670   30.1560   17.1350 C   0  0  0  0  0  0  0  0  0  0  0  0
    8.0110   30.0080   16.6400 C   0  0  0  0  0  0  0  0  0  0  0  0
    8.6400   31.2600   16.0220 C   0  0  0  0  0  0  0  0  0  0  0  0
    8.1740   32.5630   16.6740 C   0  0  0  0  0  0  0  0  0  0  0  0
    9.1540   33.0230   17.7560 C   0  0  0  0  0  0  0  0  0  0  0  0
   10.5240   32.3650   17.5720 C   0  0  0  0  0  0  0  0  0  0  0  0
   11.0970   31.7670   18.8600 C   0  0  0  0  0  0  0  0  0  0  0  0
   10.1650   31.7810   20.0770 C   0  0  0  0  0  0  0  0  0  0  0  0
   10.8840   31.5160   21.4020 C   0  0  0  0  0  0  0  0  0  0  0  0
   10.1440   32.1590   22.5760 C   0  0  0  0  0  0  0  0  0  0  0  0
   10.9420   32.1540   23.8860 C   0  0  0  0  0  0  0  0  0  0  0  0
   10.2670   32.8920   25.0420 C   0  0  0  0  0  0  0  0  0  0  0  0
   11.2250   33.4850   26.0460 C   0  0  0  0  0  0  0  0  0  0  0  0
   12.2670   32.9470   26.3970 O   0  0  0  0  0  0  0  0  0  0  0  0
   10.7940   34.6670   26.5490 O   0  0  0  0  0  0  0  0  0  0  0  0
    5.3050   31.0604   21.2063 H   0  0  0  0  0  0  0  0  0  0  0  0
    6.6427   32.1295   20.6639 H   0  0  0  0  0  0  0  0  0  0  0  0
    4.9519   32.7361   20.6639 H   0  0  0  0  0  0  0  0  0  0  0  0
    4.4134   30.9006   18.9899 H   0  0  0  0  0  0  0  0  0  0  0  0
    5.5335   32.2249   18.4126 H   0  0  0  0  0  0  0  0  0  0  0  0
    7.4349   30.6289   19.0442 H   0  0  0  0  0  0  0  0  0  0  0  0
    6.1344   29.3483   19.0614 H   0  0  0  0  0  0  0  0  0  0  0  0
    6.0036   29.2591   16.8381 H   0  0  0  0  0  0  0  0  0  0  0  0
    6.1620   31.0725   16.6812 H   0  0  0  0  0  0  0  0  0  0  0  0
    8.6316   29.7076   17.4971 H   0  0  0  0  0  0  0  0  0  0  0  0
    7.9723   29.2647   15.8301 H   0  0  0  0  0  0  0  0  0  0  0  0
    9.7326   31.1891   16.1279 H   0  0  0  0  0  0  0  0  0  0  0  0
    8.3240   31.2944   14.9689 H   0  0  0  0  0  0  0  0  0  0  0  0
    8.0994   33.3435   15.9024 H   0  0  0  0  0  0  0  0  0  0  0  0
    7.1951   32.3864   17.1436 H   0  0  0  0  0  0  0  0  0  0  0  0
    9.2688   34.1154   17.6963 H   0  0  0  0  0  0  0  0  0  0  0  0
    8.7540   32.7303   18.7380 H   0  0  0  0  0  0  0  0  0  0  0  0
   10.4257   31.5599   16.8289 H   0  0  0  0  0  0  0  0  0  0  0  0
   11.2185   33.1535   17.2466 H   0  0  0  0  0  0  0  0  0  0  0  0
   11.3675   30.7207   18.6546 H   0  0  0  0  0  0  0  0  0  0  0  0
   11.9503   32.4061   19.1311 H   0  0  0  0  0  0  0  0  0  0  0  0
    9.6826   32.7679   20.1343 H   0  0  0  0  0  0  0  0  0  0  0  0
    9.4379   30.9677   19.9361 H   0  0  0  0  0  0  0  0  0  0  0  0
   10.9420   30.4300   21.5669 H   0  0  0  0  0  0  0  0  0  0  0  0
   11.8905   31.9559   21.3441 H   0  0  0  0  0  0  0  0  0  0  0  0
    9.9154   33.2023   22.3128 H   0  0  0  0  0  0  0  0  0  0  0  0
    9.2371   31.5613   22.7501 H   0  0  0  0  0  0  0  0  0  0  0  0
   11.0971   31.1082   24.1898 H   0  0  0  0  0  0  0  0  0  0  0  0
   11.8826   32.6864   23.6815 H   0  0  0  0  0  0  0  0  0  0  0  0
    9.6600   33.7076   24.6220 H   0  0  0  0  0  0  0  0  0  0  0  0
    9.6664   32.1460   25.5832 H   0  0  0  0  0  0  0  0  0  0  0  0
  1  2  1  0
  2  3  1  0
  3  4  1  0
  4  5  1  0
  5  6  1  0
  6  7  1  0
  7  8  1  0
  8  9  1  0
  9 10  1  0
 10 11  1  0
 11 12  1  0
 12 13  1  0
 13 14  1  0
 14 15  1  0
 15 16  1  0
 16 17  2  0
 16 18  1  0
  1 19  1  0
  1 20  1  0
  1 21  1  0
  2 22  1  0
  2 23  1  0
  3 24  1  0
  3 25  1  0
  4 26  1  0
  4 27  1  0
  5 28  1  0
  5 29  1  0
  6 30  1  0
  6 31  1  0
  7 32  1  0
  7 33  1  0
  8 34  1  0
  8 35  1  0
  9 36  1  0
  9 37  1  0
 10 38  1  0
 10 39  1  0
 11 40  1  0
 11 41  1  0
 12 42  1  0
 12 43  1  0
 13 44  1  0
 13 45  1  0
 14 46  1  0
 14 47  1  0
 15 48  1  0
 15 49  1  0
M  CHG  1  18  -1
M  END
>  <meeko>  (20) 
{"is_sidechain": [false], "free_energy": -5.284, "intermolecular_energy": -10.521, "internal_energy": -1.088}

$$$$
