palmitate_Clobe_run03
     RDKit          3D

 49 48  0  0  0  0  0  0  0  0999 V2000
    5.5460   32.2720   21.3840 C   0  0  0  0  0  0  0  0  0  0  0  0
    5.3430   31.4160   20.1430 C   0  0  0  0  0  0  0  0  0  0  0  0
    5.5480   32.1800   18.8310 C   0  0  0  0  0  0  0  0  0  0  0  0
    5.0930   31.3950   17.5970 C   0  0  0  0  0  0  0  0  0  0  0  0
    5.5250   29.9240   17.6130 C   0  0  0  0  0  0  0  0  0  0  0  0
    6.5610   29.5170   16.5600 C   0  0  0  0  0  0  0  0  0  0  0  0
    8.0070   29.7200   17.0170 C   0  0  0  0  0  0  0  0  0  0  0  0
    8.6890   30.8320   16.2170 C   0  0  0  0  0  0  0  0  0  0  0  0
    9.1210   31.9810   17.1310 C   0  0  0  0  0  0  0  0  0  0  0  0
   10.5150   31.7920   17.7380 C   0  0  0  0  0  0  0  0  0  0  0  0
   10.5760   31.7300   19.2690 C   0  0  0  0  0  0  0  0  0  0  0  0
    9.2330   32.0140   19.9470 C   0  0  0  0  0  0  0  0  0  0  0  0
    9.3180   31.8090   21.4600 C   0  0  0  0  0  0  0  0  0  0  0  0
   10.7540   31.7750   21.9980 C   0  0  0  0  0  0  0  0  0  0  0  0
   10.8730   32.0220   23.5020 C   0  0  0  0  0  0  0  0  0  0  0  0
   12.2810   32.2730   23.9830 C   0  0  0  0  0  0  0  0  0  0  0  0
   12.5540   32.8400   25.0330 O   0  0  0  0  0  0  0  0  0  0  0  0
   13.2210   31.8340   23.1100 O   0  0  0  0  0  0  0  0  0  0  0  0
    5.3997   31.6551   22.2829 H   0  0  0  0  0  0  0  0  0  0  0  0
    6.5665   32.6827   21.3832 H   0  0  0  0  0  0  0  0  0  0  0  0
    4.8186   33.0972   21.3832 H   0  0  0  0  0  0  0  0  0  0  0  0
    6.0590   30.5816   20.1751 H   0  0  0  0  0  0  0  0  0  0  0  0
    4.2984   31.0715   20.1560 H   0  0  0  0  0  0  0  0  0  0  0  0
    4.9749   33.1177   18.8795 H   0  0  0  0  0  0  0  0  0  0  0  0
    6.6278   32.3601   18.7234 H   0  0  0  0  0  0  0  0  0  0  0  0
    3.9950   31.4346   17.5448 H   0  0  0  0  0  0  0  0  0  0  0  0
    5.5700   31.8623   16.7229 H   0  0  0  0  0  0  0  0  0  0  0  0
    5.9503   29.7088   18.6044 H   0  0  0  0  0  0  0  0  0  0  0  0
    4.6192   29.3462   17.3769 H   0  0  0  0  0  0  0  0  0  0  0  0
    6.4169   28.4526   16.3228 H   0  0  0  0  0  0  0  0  0  0  0  0
    6.4042   30.1642   15.6844 H   0  0  0  0  0  0  0  0  0  0  0  0
    8.0118   29.9903   18.0833 H   0  0  0  0  0  0  0  0  0  0  0  0
    8.5593   28.7831   16.8521 H   0  0  0  0  0  0  0  0  0  0  0  0
    9.5760   30.4203   15.7133 H   0  0  0  0  0  0  0  0  0  0  0  0
    7.9725   31.2222   15.4792 H   0  0  0  0  0  0  0  0  0  0  0  0
    9.1207   32.9112   16.5438 H   0  0  0  0  0  0  0  0  0  0  0  0
    8.4071   32.0134   17.9672 H   0  0  0  0  0  0  0  0  0  0  0  0
   10.9286   30.8512   17.3458 H   0  0  0  0  0  0  0  0  0  0  0  0
   11.0875   32.6871   17.4533 H   0  0  0  0  0  0  0  0  0  0  0  0
   10.9085   30.7237   19.5635 H   0  0  0  0  0  0  0  0  0  0  0  0
   11.2752   32.5136   19.5964 H   0  0  0  0  0  0  0  0  0  0  0  0
    8.9418   33.0549   19.7426 H   0  0  0  0  0  0  0  0  0  0  0  0
    8.4865   31.3138   19.5439 H   0  0  0  0  0  0  0  0  0  0  0  0
    8.7820   32.6335   21.9528 H   0  0  0  0  0  0  0  0  0  0  0  0
    8.8701   30.8281   21.6771 H   0  0  0  0  0  0  0  0  0  0  0  0
   11.1803   30.7852   21.7775 H   0  0  0  0  0  0  0  0  0  0  0  0
   11.2935   32.5955   21.5023 H   0  0  0  0  0  0  0  0  0  0  0  0
   10.2610   32.9001   23.7559 H   0  0  0  0  0  0  0  0  0  0  0  0
   10.5307   31.1024   23.9992 H   0  0  0  0  0  0  0  0  0  0  0  0
  1  2  1  0
  2  3  1  0
  3  4  1  0
  4  5  1  0
  5  6  1  0
  6  7  1  0
  7  8  1  0
  8  9  1  0
  9 10  1  0
 10 11  1  0
 11 12  1  0
 12 13  1  0
 13 14  1  0
 14 15  1  0
 15 16  1  0
 16 17  2  0
 16 18  1  0
  1 19  1  0
  1 20  1  0
  1 21  1  0
  2 22  1  0
  2 23  1  0
  3 24  1  0
  3 25  1  0
  4 26  1  0
  4 27  1  0
  5 28  1  0
  5 29  1  0
  6 30  1  0
  6 31  1  0
  7 32  1  0
  7 33  1  0
  8 34  1  0
  8 35  1  0
  9 36  1  0
  9 37  1  0
 10 38  1  0
 10 39  1  0
 11 40  1  0
 11 41  1  0
 12 42  1  0
 12 43  1  0
 13 44  1  0
 13 45  1  0
 14 46  1  0
 14 47  1  0
 15 48  1  0
 15 49  1  0
M  CHG  1  18  -1
M  END
>  <meeko>  (1) 
{"is_sidechain": [false], "free_energy": -6.145, "intermolecular_energy": -11.174, "internal_energy": -1.556}

$$$$
palmitate_Clobe_run03
     RDKit          3D

 49 48  0  0  0  0  0  0  0  0999 V2000
    9.6220   32.8580   15.9570 C   0  0  0  0  0  0  0  0  0  0  0  0
    8.4430   32.8940   16.9170 C   0  0  0  0  0  0  0  0  0  0  0  0
    8.8490   32.8130   18.3910 C   0  0  0  0  0  0  0  0  0  0  0  0
    9.7860   31.6400   18.6970 C   0  0  0  0  0  0  0  0  0  0  0  0
   10.4940   31.7600   20.0520 C   0  0  0  0  0  0  0  0  0  0  0  0
    9.6080   31.5920   21.2900 C   0  0  0  0  0  0  0  0  0  0  0  0
   10.1310   32.3340   22.5210 C   0  0  0  0  0  0  0  0  0  0  0  0
    9.0900   33.3190   23.0580 C   0  0  0  0  0  0  0  0  0  0  0  0
    7.9440   33.5060   22.0600 C   0  0  0  0  0  0  0  0  0  0  0  0
    6.5550   33.3110   22.6770 C   0  0  0  0  0  0  0  0  0  0  0  0
    5.5630   32.4900   21.8460 C   0  0  0  0  0  0  0  0  0  0  0  0
    6.1670   31.9170   20.5610 C   0  0  0  0  0  0  0  0  0  0  0  0
    5.0960   31.2710   19.6810 C   0  0  0  0  0  0  0  0  0  0  0  0
    5.3820   31.3820   18.1780 C   0  0  0  0  0  0  0  0  0  0  0  0
    5.5630   30.0410   17.4670 C   0  0  0  0  0  0  0  0  0  0  0  0
    6.9800   29.5240   17.4630 C   0  0  0  0  0  0  0  0  0  0  0  0
    7.6980   29.5050   16.4720 O   0  0  0  0  0  0  0  0  0  0  0  0
    7.3700   29.0470   18.6710 O   0  0  0  0  0  0  0  0  0  0  0  0
   10.5606   32.8293   16.5299 H   0  0  0  0  0  0  0  0  0  0  0  0
    9.5517   31.9616   15.3234 H   0  0  0  0  0  0  0  0  0  0  0  0
    9.6065   33.7570   15.3234 H   0  0  0  0  0  0  0  0  0  0  0  0
    7.8945   33.8342   16.7587 H   0  0  0  0  0  0  0  0  0  0  0  0
    7.8265   32.0084   16.7035 H   0  0  0  0  0  0  0  0  0  0  0  0
    9.3593   33.7483   18.6647 H   0  0  0  0  0  0  0  0  0  0  0  0
    7.9297   32.6569   18.9745 H   0  0  0  0  0  0  0  0  0  0  0  0
    9.1949   30.7123   18.6939 H   0  0  0  0  0  0  0  0  0  0  0  0
   10.5673   31.6395   17.9227 H   0  0  0  0  0  0  0  0  0  0  0  0
   11.2775   30.9889   20.0918 H   0  0  0  0  0  0  0  0  0  0  0  0
   10.8744   32.7911   20.0974 H   0  0  0  0  0  0  0  0  0  0  0  0
    8.6039   31.9742   21.0538 H   0  0  0  0  0  0  0  0  0  0  0  0
    9.5993   30.5204   21.5381 H   0  0  0  0  0  0  0  0  0  0  0  0
   10.3706   31.6018   23.3062 H   0  0  0  0  0  0  0  0  0  0  0  0
   11.0286   32.8999   22.2310 H   0  0  0  0  0  0  0  0  0  0  0  0
    8.6834   32.9321   24.0040 H   0  0  0  0  0  0  0  0  0  0  0  0
    9.5780   34.2919   23.2170 H   0  0  0  0  0  0  0  0  0  0  0  0
    8.0025   34.5252   21.6503 H   0  0  0  0  0  0  0  0  0  0  0  0
    8.0632   32.7355   21.2840 H   0  0  0  0  0  0  0  0  0  0  0  0
    6.6842   32.8045   23.6449 H   0  0  0  0  0  0  0  0  0  0  0  0
    6.1186   34.3179   22.7523 H   0  0  0  0  0  0  0  0  0  0  0  0
    5.2007   31.6543   22.4627 H   0  0  0  0  0  0  0  0  0  0  0  0
    4.7525   33.1706   21.5460 H   0  0  0  0  0  0  0  0  0  0  0  0
    6.6496   32.7300   19.9988 H   0  0  0  0  0  0  0  0  0  0  0  0
    6.9001   31.1449   20.8373 H   0  0  0  0  0  0  0  0  0  0  0  0
    5.0277   30.2050   19.9435 H   0  0  0  0  0  0  0  0  0  0  0  0
    4.1566   31.8113   19.8698 H   0  0  0  0  0  0  0  0  0  0  0  0
    4.5405   31.9103   17.7061 H   0  0  0  0  0  0  0  0  0  0  0  0
    6.3365   31.9198   18.0798 H   0  0  0  0  0  0  0  0  0  0  0  0
    4.9268   29.2970   17.9687 H   0  0  0  0  0  0  0  0  0  0  0  0
    5.2852   30.2034   16.4151 H   0  0  0  0  0  0  0  0  0  0  0  0
  1  2  1  0
  2  3  1  0
  3  4  1  0
  4  5  1  0
  5  6  1  0
  6  7  1  0
  7  8  1  0
  8  9  1  0
  9 10  1  0
 10 11  1  0
 11 12  1  0
 12 13  1  0
 13 14  1  0
 14 15  1  0
 15 16  1  0
 16 17  2  0
 16 18  1  0
  1 19  1  0
  1 20  1  0
  1 21  1  0
  2 22  1  0
  2 23  1  0
  3 24  1  0
  3 25  1  0
  4 26  1  0
  4 27  1  0
  5 28  1  0
  5 29  1  0
  6 30  1  0
  6 31  1  0
  7 32  1  0
  7 33  1  0
  8 34  1  0
  8 35  1  0
  9 36  1  0
  9 37  1  0
 10 38  1  0
 10 39  1  0
 11 40  1  0
 11 41  1  0
 12 42  1  0
 12 43  1  0
 13 44  1  0
 13 45  1  0
 14 46  1  0
 14 47  1  0
 15 48  1  0
 15 49  1  0
M  CHG  1  18  -1
M  END
>  <meeko>  (2) 
{"is_sidechain": [false], "free_energy": -6.117, "intermolecular_energy": -10.845, "internal_energy": -1.836}

$$$$
palmitate_Clobe_run03
     RDKit          3D

 49 48  0  0  0  0  0  0  0  0999 V2000
    7.4010   33.5780   22.4490 C   0  0  0  0  0  0  0  0  0  0  0  0
    5.9760   33.1310   22.7320 C   0  0  0  0  0  0  0  0  0  0  0  0
    5.3730   32.2660   21.6220 C   0  0  0  0  0  0  0  0  0  0  0  0
    6.2780   32.1390   20.3930 C   0  0  0  0  0  0  0  0  0  0  0  0
    5.5680   31.5480   19.1680 C   0  0  0  0  0  0  0  0  0  0  0  0
    6.0810   30.1880   18.6870 C   0  0  0  0  0  0  0  0  0  0  0  0
    6.0470   30.0260   17.1660 C   0  0  0  0  0  0  0  0  0  0  0  0
    7.4620   29.9820   16.5820 C   0  0  0  0  0  0  0  0  0  0  0  0
    8.5160   30.0690   17.6880 C   0  0  0  0  0  0  0  0  0  0  0  0
    9.1260   31.4650   17.8460 C   0  0  0  0  0  0  0  0  0  0  0  0
   10.6560   31.5230   17.9190 C   0  0  0  0  0  0  0  0  0  0  0  0
   11.1920   31.7880   19.3290 C   0  0  0  0  0  0  0  0  0  0  0  0
   10.0690   31.7580   20.3670 C   0  0  0  0  0  0  0  0  0  0  0  0
   10.5010   31.2000   21.7280 C   0  0  0  0  0  0  0  0  0  0  0  0
   10.8200   32.2640   22.7780 C   0  0  0  0  0  0  0  0  0  0  0  0
   12.1700   32.1090   23.4320 C   0  0  0  0  0  0  0  0  0  0  0  0
   13.1620   31.6780   22.8580 O   0  0  0  0  0  0  0  0  0  0  0  0
   12.1660   32.4670   24.7390 O   0  0  0  0  0  0  0  0  0  0  0  0
    7.9290   33.7436   23.3997 H   0  0  0  0  0  0  0  0  0  0  0  0
    7.9214   32.8000   21.8713 H   0  0  0  0  0  0  0  0  0  0  0  0
    7.3838   34.5139   21.8713 H   0  0  0  0  0  0  0  0  0  0  0  0
    5.9728   32.5501   23.6661 H   0  0  0  0  0  0  0  0  0  0  0  0
    5.3608   34.0401   22.8026 H   0  0  0  0  0  0  0  0  0  0  0  0
    5.1886   31.2593   22.0252 H   0  0  0  0  0  0  0  0  0  0  0  0
    4.4453   32.7577   21.2938 H   0  0  0  0  0  0  0  0  0  0  0  0
    6.6505   33.1401   20.1301 H   0  0  0  0  0  0  0  0  0  0  0  0
    7.0910   31.4479   20.6602 H   0  0  0  0  0  0  0  0  0  0  0  0
    4.5025   31.4368   19.4175 H   0  0  0  0  0  0  0  0  0  0  0  0
    5.7661   32.2486   18.3434 H   0  0  0  0  0  0  0  0  0  0  0  0
    7.1203   30.0679   19.0268 H   0  0  0  0  0  0  0  0  0  0  0  0
    5.4130   29.4226   19.1089 H   0  0  0  0  0  0  0  0  0  0  0  0
    5.5266   29.0896   16.9164 H   0  0  0  0  0  0  0  0  0  0  0  0
    5.5192   30.8897   16.7354 H   0  0  0  0  0  0  0  0  0  0  0  0
    7.5948   29.0385   16.0322 H   0  0  0  0  0  0  0  0  0  0  0  0
    7.5895   30.8424   15.9086 H   0  0  0  0  0  0  0  0  0  0  0  0
    8.0445   29.7858   18.6406 H   0  0  0  0  0  0  0  0  0  0  0  0
    9.3343   29.3895   17.4076 H   0  0  0  0  0  0  0  0  0  0  0  0
    8.8064   32.0717   16.9859 H   0  0  0  0  0  0  0  0  0  0  0  0
    8.7674   31.8383   18.8166 H   0  0  0  0  0  0  0  0  0  0  0  0
   11.0578   30.5606   17.5692 H   0  0  0  0  0  0  0  0  0  0  0  0
   10.9778   32.3644   17.2877 H   0  0  0  0  0  0  0  0  0  0  0  0
   11.9334   31.0155   19.5812 H   0  0  0  0  0  0  0  0  0  0  0  0
   11.6503   32.7879   19.3432 H   0  0  0  0  0  0  0  0  0  0  0  0
    9.7039   32.7853   20.5131 H   0  0  0  0  0  0  0  0  0  0  0  0
    9.2897   31.0864   19.9775 H   0  0  0  0  0  0  0  0  0  0  0  0
    9.6869   30.5692   22.1146 H   0  0  0  0  0  0  0  0  0  0  0  0
   11.4332   30.6421   21.5553 H   0  0  0  0  0  0  0  0  0  0  0  0
   10.7849   33.2496   22.2907 H   0  0  0  0  0  0  0  0  0  0  0  0
   10.0704   32.1528   23.5753 H   0  0  0  0  0  0  0  0  0  0  0  0
  1  2  1  0
  2  3  1  0
  3  4  1  0
  4  5  1  0
  5  6  1  0
  6  7  1  0
  7  8  1  0
  8  9  1  0
  9 10  1  0
 10 11  1  0
 11 12  1  0
 12 13  1  0
 13 14  1  0
 14 15  1  0
 15 16  1  0
 16 17  2  0
 16 18  1  0
  1 19  1  0
  1 20  1  0
  1 21  1  0
  2 22  1  0
  2 23  1  0
  3 24  1  0
  3 25  1  0
  4 26  1  0
  4 27  1  0
  5 28  1  0
  5 29  1  0
  6 30  1  0
  6 31  1  0
  7 32  1  0
  7 33  1  0
  8 34  1  0
  8 35  1  0
  9 36  1  0
  9 37  1  0
 10 38  1  0
 10 39  1  0
 11 40  1  0
 11 41  1  0
 12 42  1  0
 12 43  1  0
 13 44  1  0
 13 45  1  0
 14 46  1  0
 14 47  1  0
 15 48  1  0
 15 49  1  0
M  CHG  1  18  -1
M  END
>  <meeko>  (3) 
{"is_sidechain": [false], "free_energy": -6.097, "intermolecular_energy": -11.448, "internal_energy": -1.196}

$$$$
palmitate_Clobe_run03
     RDKit          3D

 49 48  0  0  0  0  0  0  0  0999 V2000
   10.4620   32.9640   17.5300 C   0  0  0  0  0  0  0  0  0  0  0  0
    9.2220   32.3030   18.1100 C   0  0  0  0  0  0  0  0  0  0  0  0
    9.1410   30.7990   17.8310 C   0  0  0  0  0  0  0  0  0  0  0  0
    8.1800   30.4450   16.6930 C   0  0  0  0  0  0  0  0  0  0  0  0
    7.0560   29.4920   17.1150 C   0  0  0  0  0  0  0  0  0  0  0  0
    5.6500   30.0970   17.1770 C   0  0  0  0  0  0  0  0  0  0  0  0
    5.6350   31.5630   17.6130 C   0  0  0  0  0  0  0  0  0  0  0  0
    5.0310   31.7200   19.0110 C   0  0  0  0  0  0  0  0  0  0  0  0
    6.1260   31.9030   20.0650 C   0  0  0  0  0  0  0  0  0  0  0  0
    5.5880   32.2500   21.4560 C   0  0  0  0  0  0  0  0  0  0  0  0
    6.5150   33.0870   22.3440 C   0  0  0  0  0  0  0  0  0  0  0  0
    7.9870   33.0200   21.9260 C   0  0  0  0  0  0  0  0  0  0  0  0
    8.9130   33.3840   23.0880 C   0  0  0  0  0  0  0  0  0  0  0  0
   10.2440   32.6220   23.0780 C   0  0  0  0  0  0  0  0  0  0  0  0
   10.3320   31.5130   22.0290 C   0  0  0  0  0  0  0  0  0  0  0  0
   11.6810   31.3910   21.3640 C   0  0  0  0  0  0  0  0  0  0  0  0
   11.8360   31.1650   20.1710 O   0  0  0  0  0  0  0  0  0  0  0  0
   12.7110   31.5230   22.2350 O   0  0  0  0  0  0  0  0  0  0  0  0
   11.1103   33.3096   18.3487 H   0  0  0  0  0  0  0  0  0  0  0  0
   11.0090   32.2378   16.9108 H   0  0  0  0  0  0  0  0  0  0  0  0
   10.1640   33.8229   16.9108 H   0  0  0  0  0  0  0  0  0  0  0  0
    9.2244   32.4549   19.1995 H   0  0  0  0  0  0  0  0  0  0  0  0
    8.3516   32.7683   17.6244 H   0  0  0  0  0  0  0  0  0  0  0  0
   10.1456   30.4388   17.5644 H   0  0  0  0  0  0  0  0  0  0  0  0
    8.7569   30.3187   18.7430 H   0  0  0  0  0  0  0  0  0  0  0  0
    7.7261   31.3745   16.3190 H   0  0  0  0  0  0  0  0  0  0  0  0
    8.7693   29.9281   15.9213 H   0  0  0  0  0  0  0  0  0  0  0  0
    7.0328   28.6598   16.3960 H   0  0  0  0  0  0  0  0  0  0  0  0
    7.2945   29.1903   18.1456 H   0  0  0  0  0  0  0  0  0  0  0  0
    5.1963   30.0264   16.1774 H   0  0  0  0  0  0  0  0  0  0  0  0
    5.0866   29.5292   17.9321 H   0  0  0  0  0  0  0  0  0  0  0  0
    6.6666   31.9446   17.6232 H   0  0  0  0  0  0  0  0  0  0  0  0
    5.0176   32.1311   16.9016 H   0  0  0  0  0  0  0  0  0  0  0  0
    4.3715   32.6003   19.0210 H   0  0  0  0  0  0  0  0  0  0  0  0
    4.4625   30.8094   19.2511 H   0  0  0  0  0  0  0  0  0  0  0  0
    6.6985   30.9665   20.1375 H   0  0  0  0  0  0  0  0  0  0  0  0
    6.7477   32.7502   19.7397 H   0  0  0  0  0  0  0  0  0  0  0  0
    4.6509   32.8109   21.3244 H   0  0  0  0  0  0  0  0  0  0  0  0
    5.4670   31.2883   21.9761 H   0  0  0  0  0  0  0  0  0  0  0  0
    6.1875   34.1361   22.2977 H   0  0  0  0  0  0  0  0  0  0  0  0
    6.4486   32.6733   23.3611 H   0  0  0  0  0  0  0  0  0  0  0  0
    8.2179   31.9981   21.5906 H   0  0  0  0  0  0  0  0  0  0  0  0
    8.1499   33.7431   21.1132 H   0  0  0  0  0  0  0  0  0  0  0  0
    9.1292   34.4613   23.0354 H   0  0  0  0  0  0  0  0  0  0  0  0
    8.3902   33.1055   24.0149 H   0  0  0  0  0  0  0  0  0  0  0  0
   11.0514   33.3434   22.8838 H   0  0  0  0  0  0  0  0  0  0  0  0
   10.3314   32.1322   24.0591 H   0  0  0  0  0  0  0  0  0  0  0  0
   10.1024   30.5558   22.5199 H   0  0  0  0  0  0  0  0  0  0  0  0
    9.6134   31.7714   21.2373 H   0  0  0  0  0  0  0  0  0  0  0  0
  1  2  1  0
  2  3  1  0
  3  4  1  0
  4  5  1  0
  5  6  1  0
  6  7  1  0
  7  8  1  0
  8  9  1  0
  9 10  1  0
 10 11  1  0
 11 12  1  0
 12 13  1  0
 13 14  1  0
 14 15  1  0
 15 16  1  0
 16 17  2  0
 16 18  1  0
  1 19  1  0
  1 20  1  0
  1 21  1  0
  2 22  1  0
  2 23  1  0
  3 24  1  0
  3 25  1  0
  4 26  1  0
  4 27  1  0
  5 28  1  0
  5 29  1  0
  6 30  1  0
  6 31  1  0
  7 32  1  0
  7 33  1  0
  8 34  1  0
  8 35  1  0
  9 36  1  0
  9 37  1  0
 10 38  1  0
 10 39  1  0
 11 40  1  0
 11 41  1  0
 12 42  1  0
 12 43  1  0
 13 44  1  0
 13 45  1  0
 14 46  1  0
 14 47  1  0
 15 48  1  0
 15 49  1  0
M  CHG  1  18  -1
M  END
>  <meeko>  (4) 
{"is_sidechain": [false], "free_energy": -6.053, "intermolecular_energy": -11.046, "internal_energy": -1.517}

$$$$
palmitate_Clobe_run03
     RDKit          3D

 49 48  0  0  0  0  0  0  0  0999 V2000
    4.3680   35.1800   15.9170 C   0  0  0  0  0  0  0  0  0  0  0  0
    4.2090   33.7590   16.4340 C   0  0  0  0  0  0  0  0  0  0  0  0
    5.4310   33.2440   17.2000 C   0  0  0  0  0  0  0  0  0  0  0  0
    5.0840   32.1930   18.2580 C   0  0  0  0  0  0  0  0  0  0  0  0
    4.6120   30.8600   17.6650 C   0  0  0  0  0  0  0  0  0  0  0  0
    5.7070   29.8290   17.3750 C   0  0  0  0  0  0  0  0  0  0  0  0
    6.9560   30.0060   18.2410 C   0  0  0  0  0  0  0  0  0  0  0  0
    8.2320   29.7850   17.4240 C   0  0  0  0  0  0  0  0  0  0  0  0
    8.1120   30.4170   16.0360 C   0  0  0  0  0  0  0  0  0  0  0  0
    9.0350   31.6220   15.8270 C   0  0  0  0  0  0  0  0  0  0  0  0
    8.5480   32.9490   16.4220 C   0  0  0  0  0  0  0  0  0  0  0  0
    9.1930   33.2900   17.7680 C   0  0  0  0  0  0  0  0  0  0  0  0
   10.6850   32.9550   17.7710 C   0  0  0  0  0  0  0  0  0  0  0  0
   11.0570   31.8010   18.7110 C   0  0  0  0  0  0  0  0  0  0  0  0
   10.1830   31.6950   19.9610 C   0  0  0  0  0  0  0  0  0  0  0  0
   10.9520   31.4890   21.2420 C   0  0  0  0  0  0  0  0  0  0  0  0
   11.9340   30.7650   21.3410 O   0  0  0  0  0  0  0  0  0  0  0  0
   10.4210   32.1670   22.2890 O   0  0  0  0  0  0  0  0  0  0  0  0
    4.4456   35.8731   16.7676 H   0  0  0  0  0  0  0  0  0  0  0  0
    5.2793   35.2476   15.3047 H   0  0  0  0  0  0  0  0  0  0  0  0
    3.4942   35.4473   15.3047 H   0  0  0  0  0  0  0  0  0  0  0  0
    3.3392   33.7292   17.1067 H   0  0  0  0  0  0  0  0  0  0  0  0
    4.0818   33.1090   15.5558 H   0  0  0  0  0  0  0  0  0  0  0  0
    6.1314   32.7962   16.4796 H   0  0  0  0  0  0  0  0  0  0  0  0
    5.8713   34.1035   17.7268 H   0  0  0  0  0  0  0  0  0  0  0  0
    5.9795   32.0048   18.8684 H   0  0  0  0  0  0  0  0  0  0  0  0
    4.2506   32.5956   18.8525 H   0  0  0  0  0  0  0  0  0  0  0  0
    3.9036   30.4079   18.3748 H   0  0  0  0  0  0  0  0  0  0  0  0
    4.1728   31.1091   16.6877 H   0  0  0  0  0  0  0  0  0  0  0  0
    5.2967   28.8247   17.5567 H   0  0  0  0  0  0  0  0  0  0  0  0
    6.0158   29.9702   16.3287 H   0  0  0  0  0  0  0  0  0  0  0  0
    6.9656   31.0260   18.6526 H   0  0  0  0  0  0  0  0  0  0  0  0
    6.9272   29.2615   19.0503 H   0  0  0  0  0  0  0  0  0  0  0  0
    9.0816   30.2402   17.9540 H   0  0  0  0  0  0  0  0  0  0  0  0
    8.3873   28.7027   17.3035 H   0  0  0  0  0  0  0  0  0  0  0  0
    8.3613   29.6539   15.2840 H   0  0  0  0  0  0  0  0  0  0  0  0
    7.0790   30.7818   15.9367 H   0  0  0  0  0  0  0  0  0  0  0  0
   10.0076   31.3848   16.2829 H   0  0  0  0  0  0  0  0  0  0  0  0
    9.0765   31.7805   14.7393 H   0  0  0  0  0  0  0  0  0  0  0  0
    8.7804   33.7552   15.7107 H   0  0  0  0  0  0  0  0  0  0  0  0
    7.4672   32.8461   16.5988 H   0  0  0  0  0  0  0  0  0  0  0  0
    9.0670   34.3651   17.9634 H   0  0  0  0  0  0  0  0  0  0  0  0
    8.7017   32.6917   18.5494 H   0  0  0  0  0  0  0  0  0  0  0  0
   10.9808   32.6787   16.7482 H   0  0  0  0  0  0  0  0  0  0  0  0
   11.2139   33.8484   18.1345 H   0  0  0  0  0  0  0  0  0  0  0  0
   10.9698   30.8589   18.1498 H   0  0  0  0  0  0  0  0  0  0  0  0
   12.0807   31.9999   19.0608 H   0  0  0  0  0  0  0  0  0  0  0  0
    9.6014   32.6240   20.0542 H   0  0  0  0  0  0  0  0  0  0  0  0
    9.5502   30.8052   19.8276 H   0  0  0  0  0  0  0  0  0  0  0  0
  1  2  1  0
  2  3  1  0
  3  4  1  0
  4  5  1  0
  5  6  1  0
  6  7  1  0
  7  8  1  0
  8  9  1  0
  9 10  1  0
 10 11  1  0
 11 12  1  0
 12 13  1  0
 13 14  1  0
 14 15  1  0
 15 16  1  0
 16 17  2  0
 16 18  1  0
  1 19  1  0
  1 20  1  0
  1 21  1  0
  2 22  1  0
  2 23  1  0
  3 24  1  0
  3 25  1  0
  4 26  1  0
  4 27  1  0
  5 28  1  0
  5 29  1  0
  6 30  1  0
  6 31  1  0
  7 32  1  0
  7 33  1  0
  8 34  1  0
  8 35  1  0
  9 36  1  0
  9 37  1  0
 10 38  1  0
 10 39  1  0
 11 40  1  0
 11 41  1  0
 12 42  1  0
 12 43  1  0
 13 44  1  0
 13 45  1  0
 14 46  1  0
 14 47  1  0
 15 48  1  0
 15 49  1  0
M  CHG  1  18  -1
M  END
>  <meeko>  (5) 
{"is_sidechain": [false], "free_energy": -5.985, "intermolecular_energy": -10.7, "internal_energy": -1.739}

$$$$
palmitate_Clobe_run03
     RDKit          3D

 49 48  0  0  0  0  0  0  0  0999 V2000
    4.3340   31.2460   17.2020 C   0  0  0  0  0  0  0  0  0  0  0  0
    5.0310   30.9060   18.5090 C   0  0  0  0  0  0  0  0  0  0  0  0
    5.1860   32.1030   19.4510 C   0  0  0  0  0  0  0  0  0  0  0  0
    5.9140   31.7580   20.7540 C   0  0  0  0  0  0  0  0  0  0  0  0
    5.3800   32.5200   21.9730 C   0  0  0  0  0  0  0  0  0  0  0  0
    6.4190   33.3020   22.7840 C   0  0  0  0  0  0  0  0  0  0  0  0
    7.7400   33.5120   22.0420 C   0  0  0  0  0  0  0  0  0  0  0  0
    8.9380   33.2710   22.9650 C   0  0  0  0  0  0  0  0  0  0  0  0
   10.0550   32.5240   22.2320 C   0  0  0  0  0  0  0  0  0  0  0  0
    9.5770   31.7770   20.9830 C   0  0  0  0  0  0  0  0  0  0  0  0
   10.5840   31.6890   19.8300 C   0  0  0  0  0  0  0  0  0  0  0  0
   10.1310   32.4230   18.5650 C   0  0  0  0  0  0  0  0  0  0  0  0
    8.6110   32.3680   18.4030 C   0  0  0  0  0  0  0  0  0  0  0  0
    8.1470   32.3320   16.9420 C   0  0  0  0  0  0  0  0  0  0  0  0
    8.5750   31.0830   16.1710 C   0  0  0  0  0  0  0  0  0  0  0  0
    8.2210   29.7820   16.8480 C   0  0  0  0  0  0  0  0  0  0  0  0
    8.9090   29.2510   17.7100 O   0  0  0  0  0  0  0  0  0  0  0  0
    7.0710   29.2390   16.3780 O   0  0  0  0  0  0  0  0  0  0  0  0
    3.3642   31.7191   17.4159 H   0  0  0  0  0  0  0  0  0  0  0  0
    4.9604   31.9397   16.6221 H   0  0  0  0  0  0  0  0  0  0  0  0
    4.1729   30.3253   16.6221 H   0  0  0  0  0  0  0  0  0  0  0  0
    4.4443   30.1315   19.0247 H   0  0  0  0  0  0  0  0  0  0  0  0
    6.0446   30.5630   18.2541 H   0  0  0  0  0  0  0  0  0  0  0  0
    5.7557   32.8863   18.9295 H   0  0  0  0  0  0  0  0  0  0  0  0
    4.1738   32.4377   19.7220 H   0  0  0  0  0  0  0  0  0  0  0  0
    5.8016   30.6798   20.9407 H   0  0  0  0  0  0  0  0  0  0  0  0
    6.9662   32.0514   20.6243 H   0  0  0  0  0  0  0  0  0  0  0  0
    4.6227   33.2345   21.6181 H   0  0  0  0  0  0  0  0  0  0  0  0
    4.9884   31.7512   22.6553 H   0  0  0  0  0  0  0  0  0  0  0  0
    5.9979   34.2877   23.0310 H   0  0  0  0  0  0  0  0  0  0  0  0
    6.6432   32.7072   23.6818 H   0  0  0  0  0  0  0  0  0  0  0  0
    7.7919   32.8106   21.1962 H   0  0  0  0  0  0  0  0  0  0  0  0
    7.7781   34.5522   21.6862 H   0  0  0  0  0  0  0  0  0  0  0  0
    9.3230   34.2402   23.3148 H   0  0  0  0  0  0  0  0  0  0  0  0
    8.6065   32.6576   23.8158 H   0  0  0  0  0  0  0  0  0  0  0  0
   10.8205   33.2536   21.9291 H   0  0  0  0  0  0  0  0  0  0  0  0
   10.4486   31.7689   22.9283 H   0  0  0  0  0  0  0  0  0  0  0  0
    9.3169   30.7510   21.2826 H   0  0  0  0  0  0  0  0  0  0  0  0
    8.7286   32.3591   20.5940 H   0  0  0  0  0  0  0  0  0  0  0  0
   11.5356   32.1275   20.1649 H   0  0  0  0  0  0  0  0  0  0  0  0
   10.6835   30.6252   19.5683 H   0  0  0  0  0  0  0  0  0  0  0  0
   10.4464   33.4749   18.6290 H   0  0  0  0  0  0  0  0  0  0  0  0
   10.5903   31.9304   17.6953 H   0  0  0  0  0  0  0  0  0  0  0  0
    8.2407   31.4632   18.9072 H   0  0  0  0  0  0  0  0  0  0  0  0
    8.2073   33.2906   18.8455 H   0  0  0  0  0  0  0  0  0  0  0  0
    7.0483   32.3839   16.9292 H   0  0  0  0  0  0  0  0  0  0  0  0
    8.6241   33.1873   16.4413 H   0  0  0  0  0  0  0  0  0  0  0  0
    8.0863   31.1024   15.1857 H   0  0  0  0  0  0  0  0  0  0  0  0
    9.6726   31.1148   16.1055 H   0  0  0  0  0  0  0  0  0  0  0  0
  1  2  1  0
  2  3  1  0
  3  4  1  0
  4  5  1  0
  5  6  1  0
  6  7  1  0
  7  8  1  0
  8  9  1  0
  9 10  1  0
 10 11  1  0
 11 12  1  0
 12 13  1  0
 13 14  1  0
 14 15  1  0
 15 16  1  0
 16 17  2  0
 16 18  1  0
  1 19  1  0
  1 20  1  0
  1 21  1  0
  2 22  1  0
  2 23  1  0
  3 24  1  0
  3 25  1  0
  4 26  1  0
  4 27  1  0
  5 28  1  0
  5 29  1  0
  6 30  1  0
  6 31  1  0
  7 32  1  0
  7 33  1  0
  8 34  1  0
  8 35  1  0
  9 36  1  0
  9 37  1  0
 10 38  1  0
 10 39  1  0
 11 40  1  0
 11 41  1  0
 12 42  1  0
 12 43  1  0
 13 44  1  0
 13 45  1  0
 14 46  1  0
 14 47  1  0
 15 48  1  0
 15 49  1  0
M  CHG  1  18  -1
M  END
>  <meeko>  (6) 
{"is_sidechain": [false], "free_energy": -5.96, "intermolecular_energy": -10.615, "internal_energy": -1.779}

$$$$
palmitate_Clobe_run03
     RDKit          3D

 49 48  0  0  0  0  0  0  0  0999 V2000
    5.5140   31.8560   20.8890 C   0  0  0  0  0  0  0  0  0  0  0  0
    6.0420   31.8120   19.4640 C   0  0  0  0  0  0  0  0  0  0  0  0
    5.0720   32.3960   18.4320 C   0  0  0  0  0  0  0  0  0  0  0  0
    4.8580   31.4870   17.2180 C   0  0  0  0  0  0  0  0  0  0  0  0
    5.1910   30.0150   17.4900 C   0  0  0  0  0  0  0  0  0  0  0  0
    6.2910   29.4030   16.6170 C   0  0  0  0  0  0  0  0  0  0  0  0
    7.5530   29.0290   17.3960 C   0  0  0  0  0  0  0  0  0  0  0  0
    8.6730   30.0440   17.1560 C   0  0  0  0  0  0  0  0  0  0  0  0
    8.4860   30.7620   15.8170 C   0  0  0  0  0  0  0  0  0  0  0  0
    8.9550   32.2200   15.8310 C   0  0  0  0  0  0  0  0  0  0  0  0
    8.3690   33.1010   16.9410 C   0  0  0  0  0  0  0  0  0  0  0  0
    9.4150   33.6030   17.9400 C   0  0  0  0  0  0  0  0  0  0  0  0
   10.7680   32.9260   17.7170 C   0  0  0  0  0  0  0  0  0  0  0  0
   11.1800   31.9810   18.8530 C   0  0  0  0  0  0  0  0  0  0  0  0
   10.1180   31.7910   19.9360 C   0  0  0  0  0  0  0  0  0  0  0  0
   10.6720   31.6080   21.3270 C   0  0  0  0  0  0  0  0  0  0  0  0
   10.2250   32.1680   22.3190 O   0  0  0  0  0  0  0  0  0  0  0  0
   11.7460   30.7820   21.3620 O   0  0  0  0  0  0  0  0  0  0  0  0
    6.3554   31.7859   21.5941 H   0  0  0  0  0  0  0  0  0  0  0  0
    4.9769   32.8020   21.0520 H   0  0  0  0  0  0  0  0  0  0  0  0
    4.8277   31.0119   21.0520 H   0  0  0  0  0  0  0  0  0  0  0  0
    6.9800   32.3851   19.4229 H   0  0  0  0  0  0  0  0  0  0  0  0
    6.1874   30.7525   19.2065 H   0  0  0  0  0  0  0  0  0  0  0  0
    4.1002   32.5604   18.9204 H   0  0  0  0  0  0  0  0  0  0  0  0
    5.5148   33.3329   18.0630 H   0  0  0  0  0  0  0  0  0  0  0  0
    3.8031   31.5549   16.9138 H   0  0  0  0  0  0  0  0  0  0  0  0
    5.5425   31.8334   16.4297 H   0  0  0  0  0  0  0  0  0  0  0  0
    5.5083   29.9301   18.5398 H   0  0  0  0  0  0  0  0  0  0  0  0
    4.2755   29.4545   17.2498 H   0  0  0  0  0  0  0  0  0  0  0  0
    5.8930   28.4940   16.1423 H   0  0  0  0  0  0  0  0  0  0  0  0
    6.5808   30.1667   15.8803 H   0  0  0  0  0  0  0  0  0  0  0  0
    7.3170   29.0025   18.4700 H   0  0  0  0  0  0  0  0  0  0  0  0
    7.8965   28.0430   17.0498 H   0  0  0  0  0  0  0  0  0  0  0  0
    8.6645   30.7873   17.9668 H   0  0  0  0  0  0  0  0  0  0  0  0
    9.6331   29.5075   17.1345 H   0  0  0  0  0  0  0  0  0  0  0  0
    9.0580   30.2203   15.0493 H   0  0  0  0  0  0  0  0  0  0  0  0
    7.4066   30.7729   15.6054 H   0  0  0  0  0  0  0  0  0  0  0  0
   10.0494   32.2210   15.9422 H   0  0  0  0  0  0  0  0  0  0  0  0
    8.5998   32.6562   14.8857 H   0  0  0  0  0  0  0  0  0  0  0  0
    7.8863   33.9727   16.4750 H   0  0  0  0  0  0  0  0  0  0  0  0
    7.6564   32.4802   17.5039 H   0  0  0  0  0  0  0  0  0  0  0  0
    9.5339   34.6897   17.8182 H   0  0  0  0  0  0  0  0  0  0  0  0
    9.0690   33.3602   18.9556 H   0  0  0  0  0  0  0  0  0  0  0  0
   10.7162   32.3455   16.7841 H   0  0  0  0  0  0  0  0  0  0  0  0
   11.5234   33.7244   17.6734 H   0  0  0  0  0  0  0  0  0  0  0  0
   11.4055   30.9968   18.4165 H   0  0  0  0  0  0  0  0  0  0  0  0
   12.0490   32.4428   19.3445 H   0  0  0  0  0  0  0  0  0  0  0  0
    9.4671   32.6778   19.9389 H   0  0  0  0  0  0  0  0  0  0  0  0
    9.5794   30.8644   19.6883 H   0  0  0  0  0  0  0  0  0  0  0  0
  1  2  1  0
  2  3  1  0
  3  4  1  0
  4  5  1  0
  5  6  1  0
  6  7  1  0
  7  8  1  0
  8  9  1  0
  9 10  1  0
 10 11  1  0
 11 12  1  0
 12 13  1  0
 13 14  1  0
 14 15  1  0
 15 16  1  0
 16 17  2  0
 16 18  1  0
  1 19  1  0
  1 20  1  0
  1 21  1  0
  2 22  1  0
  2 23  1  0
  3 24  1  0
  3 25  1  0
  4 26  1  0
  4 27  1  0
  5 28  1  0
  5 29  1  0
  6 30  1  0
  6 31  1  0
  7 32  1  0
  7 33  1  0
  8 34  1  0
  8 35  1  0
  9 36  1  0
  9 37  1  0
 10 38  1  0
 10 39  1  0
 11 40  1  0
 11 41  1  0
 12 42  1  0
 12 43  1  0
 13 44  1  0
 13 45  1  0
 14 46  1  0
 14 47  1  0
 15 48  1  0
 15 49  1  0
M  CHG  1  18  -1
M  END
>  <meeko>  (7) 
{"is_sidechain": [false], "free_energy": -5.94, "intermolecular_energy": -10.163, "internal_energy": -2.193}

$$$$
palmitate_Clobe_run03
     RDKit          3D

 49 48  0  0  0  0  0  0  0  0999 V2000
    6.4310   33.3410   22.7360 C   0  0  0  0  0  0  0  0  0  0  0  0
    7.6910   33.3460   21.8860 C   0  0  0  0  0  0  0  0  0  0  0  0
    8.9800   33.1910   22.6980 C   0  0  0  0  0  0  0  0  0  0  0  0
    9.9380   32.1450   22.1190 C   0  0  0  0  0  0  0  0  0  0  0  0
    9.6460   31.7920   20.6560 C   0  0  0  0  0  0  0  0  0  0  0  0
   10.8680   31.6540   19.7420 C   0  0  0  0  0  0  0  0  0  0  0  0
   10.5110   31.5120   18.2620 C   0  0  0  0  0  0  0  0  0  0  0  0
   10.8030   32.8040   17.4940 C   0  0  0  0  0  0  0  0  0  0  0  0
    9.5590   33.2950   16.7510 C   0  0  0  0  0  0  0  0  0  0  0  0
    8.3200   33.4210   17.6440 C   0  0  0  0  0  0  0  0  0  0  0  0
    6.9700   33.2070   16.9500 C   0  0  0  0  0  0  0  0  0  0  0  0
    5.8590   32.7510   17.9000 C   0  0  0  0  0  0  0  0  0  0  0  0
    6.3310   31.6100   18.8020 C   0  0  0  0  0  0  0  0  0  0  0  0
    5.6970   30.2540   18.4650 C   0  0  0  0  0  0  0  0  0  0  0  0
    6.1390   29.6620   17.1270 C   0  0  0  0  0  0  0  0  0  0  0  0
    7.6120   29.3450   17.0430 C   0  0  0  0  0  0  0  0  0  0  0  0
    8.1830   28.5550   17.7830 O   0  0  0  0  0  0  0  0  0  0  0  0
    8.2500   30.0540   16.0800 O   0  0  0  0  0  0  0  0  0  0  0  0
    6.7070   33.3421   23.8008 H   0  0  0  0  0  0  0  0  0  0  0  0
    5.8335   34.2368   22.5112 H   0  0  0  0  0  0  0  0  0  0  0  0
    5.8406   32.4405   22.5112 H   0  0  0  0  0  0  0  0  0  0  0  0
    7.6298   32.5141   21.1689 H   0  0  0  0  0  0  0  0  0  0  0  0
    7.7398   34.3256   21.3880 H   0  0  0  0  0  0  0  0  0  0  0  0
    9.4963   34.1620   22.7224 H   0  0  0  0  0  0  0  0  0  0  0  0
    8.6930   32.8493   23.7034 H   0  0  0  0  0  0  0  0  0  0  0  0
   10.9634   32.5379   22.1844 H   0  0  0  0  0  0  0  0  0  0  0  0
    9.8057   31.2246   22.7066 H   0  0  0  0  0  0  0  0  0  0  0  0
    9.1055   30.8341   20.6423 H   0  0  0  0  0  0  0  0  0  0  0  0
    9.0701   32.6393   20.2555 H   0  0  0  0  0  0  0  0  0  0  0  0
   11.4966   32.5484   19.8641 H   0  0  0  0  0  0  0  0  0  0  0  0
   11.3906   30.7325   20.0382 H   0  0  0  0  0  0  0  0  0  0  0  0
   11.1044   30.6944   17.8269 H   0  0  0  0  0  0  0  0  0  0  0  0
    9.4353   31.2961   18.1830 H   0  0  0  0  0  0  0  0  0  0  0  0
   11.1267   33.5790   18.2043 H   0  0  0  0  0  0  0  0  0  0  0  0
   11.5937   32.6015   16.7566 H   0  0  0  0  0  0  0  0  0  0  0  0
    9.7788   34.2829   16.3200 H   0  0  0  0  0  0  0  0  0  0  0  0
    9.3264   32.5446   15.9811 H   0  0  0  0  0  0  0  0  0  0  0  0
    8.4072   32.6759   18.4485 H   0  0  0  0  0  0  0  0  0  0  0  0
    8.3117   34.4630   17.9964 H   0  0  0  0  0  0  0  0  0  0  0  0
    6.6631   34.1558   16.4857 H   0  0  0  0  0  0  0  0  0  0  0  0
    7.1109   32.4059   16.2095 H   0  0  0  0  0  0  0  0  0  0  0  0
    5.5536   33.6009   18.5279 H   0  0  0  0  0  0  0  0  0  0  0  0
    5.0138   32.3887   17.2964 H   0  0  0  0  0  0  0  0  0  0  0  0
    7.4225   31.5173   18.7021 H   0  0  0  0  0  0  0  0  0  0  0  0
    6.0230   31.8627   19.8273 H   0  0  0  0  0  0  0  0  0  0  0  0
    5.9643   29.5427   19.2604 H   0  0  0  0  0  0  0  0  0  0  0  0
    4.6133   30.4262   18.3879 H   0  0  0  0  0  0  0  0  0  0  0  0
    5.5766   28.7316   16.9596 H   0  0  0  0  0  0  0  0  0  0  0  0
    5.9380   30.4273   16.3628 H   0  0  0  0  0  0  0  0  0  0  0  0
  1  2  1  0
  2  3  1  0
  3  4  1  0
  4  5  1  0
  5  6  1  0
  6  7  1  0
  7  8  1  0
  8  9  1  0
  9 10  1  0
 10 11  1  0
 11 12  1  0
 12 13  1  0
 13 14  1  0
 14 15  1  0
 15 16  1  0
 16 17  2  0
 16 18  1  0
  1 19  1  0
  1 20  1  0
  1 21  1  0
  2 22  1  0
  2 23  1  0
  3 24  1  0
  3 25  1  0
  4 26  1  0
  4 27  1  0
  5 28  1  0
  5 29  1  0
  6 30  1  0
  6 31  1  0
  7 32  1  0
  7 33  1  0
  8 34  1  0
  8 35  1  0
  9 36  1  0
  9 37  1  0
 10 38  1  0
 10 39  1  0
 11 40  1  0
 11 41  1  0
 12 42  1  0
 12 43  1  0
 13 44  1  0
 13 45  1  0
 14 46  1  0
 14 47  1  0
 15 48  1  0
 15 49  1  0
M  CHG  1  18  -1
M  END
>  <meeko>  (8) 
{"is_sidechain": [false], "free_energy": -5.917, "intermolecular_energy": -10.486, "internal_energy": -1.829}

$$$$
palmitate_Clobe_run03
     RDKit          3D

 49 48  0  0  0  0  0  0  0  0999 V2000
   10.0230   32.9060   16.8520 C   0  0  0  0  0  0  0  0  0  0  0  0
    8.7040   32.5580   16.1800 C   0  0  0  0  0  0  0  0  0  0  0  0
    8.5200   31.0580   15.9290 C   0  0  0  0  0  0  0  0  0  0  0  0
    8.6240   30.2140   17.2040 C   0  0  0  0  0  0  0  0  0  0  0  0
    7.4100   29.3080   17.4380 C   0  0  0  0  0  0  0  0  0  0  0  0
    6.0980   29.7630   16.7940 C   0  0  0  0  0  0  0  0  0  0  0  0
    5.3040   30.7470   17.6550 C   0  0  0  0  0  0  0  0  0  0  0  0
    5.5180   30.4750   19.1460 C   0  0  0  0  0  0  0  0  0  0  0  0
    5.2590   31.7350   19.9770 C   0  0  0  0  0  0  0  0  0  0  0  0
    6.4590   32.1690   20.8240 C   0  0  0  0  0  0  0  0  0  0  0  0
    7.8260   32.1010   20.1330 C   0  0  0  0  0  0  0  0  0  0  0  0
    9.0040   32.0450   21.1100 C   0  0  0  0  0  0  0  0  0  0  0  0
    8.7460   32.9100   22.3440 C   0  0  0  0  0  0  0  0  0  0  0  0
    9.8850   32.8770   23.3710 C   0  0  0  0  0  0  0  0  0  0  0  0
   11.1370   32.1330   22.9050 C   0  0  0  0  0  0  0  0  0  0  0  0
   12.3110   32.2410   23.8460 C   0  0  0  0  0  0  0  0  0  0  0  0
   12.2260   32.6330   25.0030 O   0  0  0  0  0  0  0  0  0  0  0  0
   13.4840   31.8880   23.2660 O   0  0  0  0  0  0  0  0  0  0  0  0
    9.8979   32.8730   17.9444 H   0  0  0  0  0  0  0  0  0  0  0  0
   10.7917   32.1799   16.5489 H   0  0  0  0  0  0  0  0  0  0  0  0
   10.3335   33.9168   16.5489 H   0  0  0  0  0  0  0  0  0  0  0  0
    7.8831   32.9059   16.8243 H   0  0  0  0  0  0  0  0  0  0  0  0
    8.7028   33.0518   15.1971 H   0  0  0  0  0  0  0  0  0  0  0  0
    7.5270   30.8975   15.4838 H   0  0  0  0  0  0  0  0  0  0  0  0
    9.3309   30.7375   15.2584 H   0  0  0  0  0  0  0  0  0  0  0  0
    9.5213   29.5819   17.1309 H   0  0  0  0  0  0  0  0  0  0  0  0
    8.6742   30.9132   18.0517 H   0  0  0  0  0  0  0  0  0  0  0  0
    7.6522   28.3115   17.0400 H   0  0  0  0  0  0  0  0  0  0  0  0
    7.2300   29.3283   18.5230 H   0  0  0  0  0  0  0  0  0  0  0  0
    6.3311   30.2490   15.8351 H   0  0  0  0  0  0  0  0  0  0  0  0
    5.4726   28.8671   16.6668 H   0  0  0  0  0  0  0  0  0  0  0  0
    5.6337   31.7712   17.4261 H   0  0  0  0  0  0  0  0  0  0  0  0
    4.2346   30.6242   17.4283 H   0  0  0  0  0  0  0  0  0  0  0  0
    4.8273   29.6824   19.4697 H   0  0  0  0  0  0  0  0  0  0  0  0
    6.5617   30.1631   19.2988 H   0  0  0  0  0  0  0  0  0  0  0  0
    5.0017   32.5564   19.2921 H   0  0  0  0  0  0  0  0  0  0  0  0
    4.4411   31.4991   20.6738 H   0  0  0  0  0  0  0  0  0  0  0  0
    6.2913   33.2099   21.1377 H   0  0  0  0  0  0  0  0  0  0  0  0
    6.5104   31.4521   21.6567 H   0  0  0  0  0  0  0  0  0  0  0  0
    7.8531   31.1994   19.5034 H   0  0  0  0  0  0  0  0  0  0  0  0
    7.9372   33.0245   19.5458 H   0  0  0  0  0  0  0  0  0  0  0  0
    9.1558   31.0031   21.4285 H   0  0  0  0  0  0  0  0  0  0  0  0
    9.8978   32.4303   20.5975 H   0  0  0  0  0  0  0  0  0  0  0  0
    8.6052   33.9503   22.0153 H   0  0  0  0  0  0  0  0  0  0  0  0
    7.8538   32.5017   22.8412 H   0  0  0  0  0  0  0  0  0  0  0  0
   10.1682   33.9142   23.6036 H   0  0  0  0  0  0  0  0  0  0  0  0
    9.5026   32.3295   24.2451 H   0  0  0  0  0  0  0  0  0  0  0  0
   10.8830   31.0687   22.7922 H   0  0  0  0  0  0  0  0  0  0  0  0
   11.4476   32.6016   21.9595 H   0  0  0  0  0  0  0  0  0  0  0  0
  1  2  1  0
  2  3  1  0
  3  4  1  0
  4  5  1  0
  5  6  1  0
  6  7  1  0
  7  8  1  0
  8  9  1  0
  9 10  1  0
 10 11  1  0
 11 12  1  0
 12 13  1  0
 13 14  1  0
 14 15  1  0
 15 16  1  0
 16 17  2  0
 16 18  1  0
  1 19  1  0
  1 20  1  0
  1 21  1  0
  2 22  1  0
  2 23  1  0
  3 24  1  0
  3 25  1  0
  4 26  1  0
  4 27  1  0
  5 28  1  0
  5 29  1  0
  6 30  1  0
  6 31  1  0
  7 32  1  0
  7 33  1  0
  8 34  1  0
  8 35  1  0
  9 36  1  0
  9 37  1  0
 10 38  1  0
 10 39  1  0
 11 40  1  0
 11 41  1  0
 12 42  1  0
 12 43  1  0
 13 44  1  0
 13 45  1  0
 14 46  1  0
 14 47  1  0
 15 48  1  0
 15 49  1  0
M  CHG  1  18  -1
M  END
>  <meeko>  (9) 
{"is_sidechain": [false], "free_energy": -5.907, "intermolecular_energy": -10.864, "internal_energy": -1.433}

$$$$
palmitate_Clobe_run03
     RDKit          3D

 49 48  0  0  0  0  0  0  0  0999 V2000
    4.2320   33.0740   16.9670 C   0  0  0  0  0  0  0  0  0  0  0  0
    5.3680   32.4940   17.7960 C   0  0  0  0  0  0  0  0  0  0  0  0
    5.0830   31.0850   18.3260 C   0  0  0  0  0  0  0  0  0  0  0  0
    5.0240   31.0140   19.8540 C   0  0  0  0  0  0  0  0  0  0  0  0
    5.8850   32.0760   20.5500 C   0  0  0  0  0  0  0  0  0  0  0  0
    5.4410   32.4820   21.9580 C   0  0  0  0  0  0  0  0  0  0  0  0
    6.4520   33.3730   22.6830 C   0  0  0  0  0  0  0  0  0  0  0  0
    7.8540   33.2170   22.0900 C   0  0  0  0  0  0  0  0  0  0  0  0
    8.9270   33.3540   23.1730 C   0  0  0  0  0  0  0  0  0  0  0  0
   10.1500   32.4620   22.9420 C   0  0  0  0  0  0  0  0  0  0  0  0
   10.0680   31.5100   21.7430 C   0  0  0  0  0  0  0  0  0  0  0  0
   11.2960   31.5670   20.8300 C   0  0  0  0  0  0  0  0  0  0  0  0
   10.9020   31.4540   19.3570 C   0  0  0  0  0  0  0  0  0  0  0  0
    9.3860   31.4720   19.1210 C   0  0  0  0  0  0  0  0  0  0  0  0
    8.9730   31.7510   17.6760 C   0  0  0  0  0  0  0  0  0  0  0  0
    8.5730   30.5240   16.8940 C   0  0  0  0  0  0  0  0  0  0  0  0
    8.2900   30.5360   15.7040 O   0  0  0  0  0  0  0  0  0  0  0  0
    8.5250   29.4060   17.6580 O   0  0  0  0  0  0  0  0  0  0  0  0
    3.4548   33.4708   17.6368 H   0  0  0  0  0  0  0  0  0  0  0  0
    4.6183   33.8852   16.3324 H   0  0  0  0  0  0  0  0  0  0  0  0
    3.8015   32.2854   16.3324 H   0  0  0  0  0  0  0  0  0  0  0  0
    6.2708   32.4537   17.1688 H   0  0  0  0  0  0  0  0  0  0  0  0
    5.4955   33.1482   18.6711 H   0  0  0  0  0  0  0  0  0  0  0  0
    4.1160   30.7493   17.9232 H   0  0  0  0  0  0  0  0  0  0  0  0
    5.9132   30.4404   18.0014 H   0  0  0  0  0  0  0  0  0  0  0  0
    3.9791   31.1520   20.1688 H   0  0  0  0  0  0  0  0  0  0  0  0
    5.4221   30.0315   20.1477 H   0  0  0  0  0  0  0  0  0  0  0  0
    6.9107   31.6848   20.6201 H   0  0  0  0  0  0  0  0  0  0  0  0
    5.7908   32.9837   19.9358 H   0  0  0  0  0  0  0  0  0  0  0  0
    4.4892   33.0279   21.8792 H   0  0  0  0  0  0  0  0  0  0  0  0
    5.3439   31.5575   22.5461 H   0  0  0  0  0  0  0  0  0  0  0  0
    6.1374   34.4228   22.5884 H   0  0  0  0  0  0  0  0  0  0  0  0
    6.4860   33.0715   23.7403 H   0  0  0  0  0  0  0  0  0  0  0  0
    7.9387   32.2244   21.6235 H   0  0  0  0  0  0  0  0  0  0  0  0
    8.0080   34.0091   21.3424 H   0  0  0  0  0  0  0  0  0  0  0  0
    9.2612   34.4017   23.2006 H   0  0  0  0  0  0  0  0  0  0  0  0
    8.4701   33.0349   24.1214 H   0  0  0  0  0  0  0  0  0  0  0  0
   11.0214   33.1167   22.7934 H   0  0  0  0  0  0  0  0  0  0  0  0
   10.2196   31.8167   23.8301 H   0  0  0  0  0  0  0  0  0  0  0  0
    9.9633   30.4824   22.1213 H   0  0  0  0  0  0  0  0  0  0  0  0
    9.2030   31.8240   21.1403 H   0  0  0  0  0  0  0  0  0  0  0  0
   11.8161   32.5232   20.9890 H   0  0  0  0  0  0  0  0  0  0  0  0
   11.9519   30.7197   21.0788 H   0  0  0  0  0  0  0  0  0  0  0  0
   11.3483   32.2990   18.8123 H   0  0  0  0  0  0  0  0  0  0  0  0
   11.2716   30.4818   18.9990 H   0  0  0  0  0  0  0  0  0  0  0  0
    8.9815   30.4910   19.4107 H   0  0  0  0  0  0  0  0  0  0  0  0
    8.9848   32.2983   19.7263 H   0  0  0  0  0  0  0  0  0  0  0  0
    8.1186   32.4437   17.6900 H   0  0  0  0  0  0  0  0  0  0  0  0
    9.8566   32.1700   17.1723 H   0  0  0  0  0  0  0  0  0  0  0  0
  1  2  1  0
  2  3  1  0
  3  4  1  0
  4  5  1  0
  5  6  1  0
  6  7  1  0
  7  8  1  0
  8  9  1  0
  9 10  1  0
 10 11  1  0
 11 12  1  0
 12 13  1  0
 13 14  1  0
 14 15  1  0
 15 16  1  0
 16 17  2  0
 16 18  1  0
  1 19  1  0
  1 20  1  0
  1 21  1  0
  2 22  1  0
  2 23  1  0
  3 24  1  0
  3 25  1  0
  4 26  1  0
  4 27  1  0
  5 28  1  0
  5 29  1  0
  6 30  1  0
  6 31  1  0
  7 32  1  0
  7 33  1  0
  8 34  1  0
  8 35  1  0
  9 36  1  0
  9 37  1  0
 10 38  1  0
 10 39  1  0
 11 40  1  0
 11 41  1  0
 12 42  1  0
 12 43  1  0
 13 44  1  0
 13 45  1  0
 14 46  1  0
 14 47  1  0
 15 48  1  0
 15 49  1  0
M  CHG  1  18  -1
M  END
>  <meeko>  (10) 
{"is_sidechain": [false], "free_energy": -5.889, "intermolecular_energy": -10.602, "internal_energy": -1.664}

$$$$
palmitate_Clobe_run03
     RDKit          3D

 49 48  0  0  0  0  0  0  0  0999 V2000
    7.7420   28.9970   17.4660 C   0  0  0  0  0  0  0  0  0  0  0  0
    6.7210   29.6300   16.5350 C   0  0  0  0  0  0  0  0  0  0  0  0
    5.4600   30.1230   17.2500 C   0  0  0  0  0  0  0  0  0  0  0  0
    5.7030   31.3560   18.1250 C   0  0  0  0  0  0  0  0  0  0  0  0
    5.4690   31.1020   19.6200 C   0  0  0  0  0  0  0  0  0  0  0  0
    6.2280   32.0190   20.5830 C   0  0  0  0  0  0  0  0  0  0  0  0
    5.3530   32.5860   21.7030 C   0  0  0  0  0  0  0  0  0  0  0  0
    6.2070   33.1500   22.8410 C   0  0  0  0  0  0  0  0  0  0  0  0
    7.5350   33.6980   22.3130 C   0  0  0  0  0  0  0  0  0  0  0  0
    8.7460   33.3000   23.1620 C   0  0  0  0  0  0  0  0  0  0  0  0
    9.9830   32.8310   22.3870 C   0  0  0  0  0  0  0  0  0  0  0  0
    9.7230   31.6100   21.5000 C   0  0  0  0  0  0  0  0  0  0  0  0
   10.4060   31.7540   20.1390 C   0  0  0  0  0  0  0  0  0  0  0  0
    9.4640   31.5350   18.9490 C   0  0  0  0  0  0  0  0  0  0  0  0
    9.1620   32.7950   18.1390 C   0  0  0  0  0  0  0  0  0  0  0  0
    9.6680   32.7580   16.7180 C   0  0  0  0  0  0  0  0  0  0  0  0
   10.8370   32.9420   16.4040 O   0  0  0  0  0  0  0  0  0  0  0  0
    8.6830   32.5330   15.8140 O   0  0  0  0  0  0  0  0  0  0  0  0
    7.4484   29.1790   18.5103 H   0  0  0  0  0  0  0  0  0  0  0  0
    7.7850   27.9136   17.2807 H   0  0  0  0  0  0  0  0  0  0  0  0
    8.7315   29.4403   17.2807 H   0  0  0  0  0  0  0  0  0  0  0  0
    7.1932   30.4872   16.0327 H   0  0  0  0  0  0  0  0  0  0  0  0
    6.4051   28.8506   15.8260 H   0  0  0  0  0  0  0  0  0  0  0  0
    4.7049   30.3765   16.4913 H   0  0  0  0  0  0  0  0  0  0  0  0
    5.1242   29.3130   17.9142 H   0  0  0  0  0  0  0  0  0  0  0  0
    6.7445   31.6816   17.9861 H   0  0  0  0  0  0  0  0  0  0  0  0
    4.9802   32.1232   17.8104 H   0  0  0  0  0  0  0  0  0  0  0  0
    4.3936   31.2224   19.8176 H   0  0  0  0  0  0  0  0  0  0  0  0
    5.8510   30.0885   19.8122 H   0  0  0  0  0  0  0  0  0  0  0  0
    7.0474   31.4437   21.0387 H   0  0  0  0  0  0  0  0  0  0  0  0
    6.5948   32.8732   19.9950 H   0  0  0  0  0  0  0  0  0  0  0  0
    4.7235   33.3902   21.2943 H   0  0  0  0  0  0  0  0  0  0  0  0
    4.7309   31.7726   22.1046 H   0  0  0  0  0  0  0  0  0  0  0  0
    5.6546   33.9621   23.3364 H   0  0  0  0  0  0  0  0  0  0  0  0
    6.4215   32.3388   23.5523 H   0  0  0  0  0  0  0  0  0  0  0  0
    7.6864   33.3175   21.2921 H   0  0  0  0  0  0  0  0  0  0  0  0
    7.4659   34.7953   22.3458 H   0  0  0  0  0  0  0  0  0  0  0  0
    9.0369   34.1733   23.7643 H   0  0  0  0  0  0  0  0  0  0  0  0
    8.4208   32.4331   23.7558 H   0  0  0  0  0  0  0  0  0  0  0  0
   10.3277   33.6578   21.7486 H   0  0  0  0  0  0  0  0  0  0  0  0
   10.7373   32.5351   23.1310 H   0  0  0  0  0  0  0  0  0  0  0  0
   10.1127   30.7127   22.0029 H   0  0  0  0  0  0  0  0  0  0  0  0
    8.6386   31.5254   21.3362 H   0  0  0  0  0  0  0  0  0  0  0  0
   10.8261   32.7681   20.0671 H   0  0  0  0  0  0  0  0  0  0  0  0
   11.1794   30.9738   20.0839 H   0  0  0  0  0  0  0  0  0  0  0  0
    9.9258   30.7969   18.2767 H   0  0  0  0  0  0  0  0  0  0  0  0
    8.5052   31.1952   19.3677 H   0  0  0  0  0  0  0  0  0  0  0  0
    8.0711   32.9338   18.1124 H   0  0  0  0  0  0  0  0  0  0  0  0
    9.6872   33.6227   18.6381 H   0  0  0  0  0  0  0  0  0  0  0  0
  1  2  1  0
  2  3  1  0
  3  4  1  0
  4  5  1  0
  5  6  1  0
  6  7  1  0
  7  8  1  0
  8  9  1  0
  9 10  1  0
 10 11  1  0
 11 12  1  0
 12 13  1  0
 13 14  1  0
 14 15  1  0
 15 16  1  0
 16 17  2  0
 16 18  1  0
  1 19  1  0
  1 20  1  0
  1 21  1  0
  2 22  1  0
  2 23  1  0
  3 24  1  0
  3 25  1  0
  4 26  1  0
  4 27  1  0
  5 28  1  0
  5 29  1  0
  6 30  1  0
  6 31  1  0
  7 32  1  0
  7 33  1  0
  8 34  1  0
  8 35  1  0
  9 36  1  0
  9 37  1  0
 10 38  1  0
 10 39  1  0
 11 40  1  0
 11 41  1  0
 12 42  1  0
 12 43  1  0
 13 44  1  0
 13 45  1  0
 14 46  1  0
 14 47  1  0
 15 48  1  0
 15 49  1  0
M  CHG  1  18  -1
M  END
>  <meeko>  (11) 
{"is_sidechain": [false], "free_energy": -5.855, "intermolecular_energy": -10.437, "internal_energy": -1.766}

$$$$
palmitate_Clobe_run03
     RDKit          3D

 49 48  0  0  0  0  0  0  0  0999 V2000
   10.8560   32.2340   23.8820 C   0  0  0  0  0  0  0  0  0  0  0  0
   12.1180   31.9510   23.0830 C   0  0  0  0  0  0  0  0  0  0  0  0
   11.8440   31.4480   21.6620 C   0  0  0  0  0  0  0  0  0  0  0  0
   10.3520   31.3570   21.3290 C   0  0  0  0  0  0  0  0  0  0  0  0
   10.0310   31.6870   19.8670 C   0  0  0  0  0  0  0  0  0  0  0  0
   11.2360   31.9180   18.9500 C   0  0  0  0  0  0  0  0  0  0  0  0
   10.8510   32.3180   17.5250 C   0  0  0  0  0  0  0  0  0  0  0  0
    9.3700   32.6970   17.4360 C   0  0  0  0  0  0  0  0  0  0  0  0
    8.7790   32.2910   16.0850 C   0  0  0  0  0  0  0  0  0  0  0  0
    8.5870   30.7790   15.9280 C   0  0  0  0  0  0  0  0  0  0  0  0
    7.8080   30.0830   17.0500 C   0  0  0  0  0  0  0  0  0  0  0  0
    6.5020   29.4380   16.5800 C   0  0  0  0  0  0  0  0  0  0  0  0
    5.2990   29.9960   17.3420 C   0  0  0  0  0  0  0  0  0  0  0  0
    5.2330   31.5290   17.3540 C   0  0  0  0  0  0  0  0  0  0  0  0
    5.0700   32.1450   18.7430 C   0  0  0  0  0  0  0  0  0  0  0  0
    5.6010   31.2930   19.8690 C   0  0  0  0  0  0  0  0  0  0  0  0
    6.7600   31.3220   20.2600 O   0  0  0  0  0  0  0  0  0  0  0  0
    4.6640   30.4600   20.3860 O   0  0  0  0  0  0  0  0  0  0  0  0
   11.0835   32.1830   24.9570 H   0  0  0  0  0  0  0  0  0  0  0  0
   10.4822   33.2383   23.6336 H   0  0  0  0  0  0  0  0  0  0  0  0
   10.0892   31.4855   23.6336 H   0  0  0  0  0  0  0  0  0  0  0  0
   12.7031   32.8801   23.0163 H   0  0  0  0  0  0  0  0  0  0  0  0
   12.6607   31.1519   23.6092 H   0  0  0  0  0  0  0  0  0  0  0  0
   12.3193   32.1383   20.9495 H   0  0  0  0  0  0  0  0  0  0  0  0
   12.2563   30.4307   21.5912 H   0  0  0  0  0  0  0  0  0  0  0  0
   10.0104   30.3324   21.5378 H   0  0  0  0  0  0  0  0  0  0  0  0
    9.8355   32.1035   21.9503 H   0  0  0  0  0  0  0  0  0  0  0  0
    9.4489   30.8504   19.4533 H   0  0  0  0  0  0  0  0  0  0  0  0
    9.4894   32.6441   19.8913 H   0  0  0  0  0  0  0  0  0  0  0  0
   11.8534   32.7195   19.3818 H   0  0  0  0  0  0  0  0  0  0  0  0
   11.7786   30.9635   18.8825 H   0  0  0  0  0  0  0  0  0  0  0  0
   11.4609   33.1802   17.2174 H   0  0  0  0  0  0  0  0  0  0  0  0
   11.0306   31.4588   16.8620 H   0  0  0  0  0  0  0  0  0  0  0  0
    8.8189   32.1842   18.2381 H   0  0  0  0  0  0  0  0  0  0  0  0
    9.2811   33.7882   17.5430 H   0  0  0  0  0  0  0  0  0  0  0  0
    7.7996   32.7792   15.9732 H   0  0  0  0  0  0  0  0  0  0  0  0
    9.4951   32.6068   15.3120 H   0  0  0  0  0  0  0  0  0  0  0  0
    8.0486   30.6037   14.9849 H   0  0  0  0  0  0  0  0  0  0  0  0
    9.5979   30.3462   15.9546 H   0  0  0  0  0  0  0  0  0  0  0  0
    8.4470   29.2991   17.4826 H   0  0  0  0  0  0  0  0  0  0  0  0
    7.5397   30.8566   17.7845 H   0  0  0  0  0  0  0  0  0  0  0  0
    6.3700   29.6381   15.5064 H   0  0  0  0  0  0  0  0  0  0  0  0
    6.5615   28.3563   16.7707 H   0  0  0  0  0  0  0  0  0  0  0  0
    4.3816   29.6126   16.8714 H   0  0  0  0  0  0  0  0  0  0  0  0
    5.4020   29.6706   18.3877 H   0  0  0  0  0  0  0  0  0  0  0  0
    6.1634   31.9165   16.9132 H   0  0  0  0  0  0  0  0  0  0  0  0
    4.3368   31.8082   16.7806 H   0  0  0  0  0  0  0  0  0  0  0  0
    5.6042   33.1065   18.7577 H   0  0  0  0  0  0  0  0  0  0  0  0
    3.9887   32.2524   18.9138 H   0  0  0  0  0  0  0  0  0  0  0  0
  1  2  1  0
  2  3  1  0
  3  4  1  0
  4  5  1  0
  5  6  1  0
  6  7  1  0
  7  8  1  0
  8  9  1  0
  9 10  1  0
 10 11  1  0
 11 12  1  0
 12 13  1  0
 13 14  1  0
 14 15  1  0
 15 16  1  0
 16 17  2  0
 16 18  1  0
  1 19  1  0
  1 20  1  0
  1 21  1  0
  2 22  1  0
  2 23  1  0
  3 24  1  0
  3 25  1  0
  4 26  1  0
  4 27  1  0
  5 28  1  0
  5 29  1  0
  6 30  1  0
  6 31  1  0
  7 32  1  0
  7 33  1  0
  8 34  1  0
  8 35  1  0
  9 36  1  0
  9 37  1  0
 10 38  1  0
 10 39  1  0
 11 40  1  0
 11 41  1  0
 12 42  1  0
 12 43  1  0
 13 44  1  0
 13 45  1  0
 14 46  1  0
 14 47  1  0
 15 48  1  0
 15 49  1  0
M  CHG  1  18  -1
M  END
>  <meeko>  (12) 
{"is_sidechain": [false], "free_energy": -5.809, "intermolecular_energy": -10.817, "internal_energy": -1.303}

$$$$
palmitate_Clobe_run03
     RDKit          3D

 49 48  0  0  0  0  0  0  0  0999 V2000
    7.9650   29.2240   17.1890 C   0  0  0  0  0  0  0  0  0  0  0  0
    7.7990   30.5440   16.4530 C   0  0  0  0  0  0  0  0  0  0  0  0
    8.9350   31.5380   16.7120 C   0  0  0  0  0  0  0  0  0  0  0  0
    8.7760   32.3110   18.0250 C   0  0  0  0  0  0  0  0  0  0  0  0
    9.3520   31.5760   19.2410 C   0  0  0  0  0  0  0  0  0  0  0  0
   10.8690   31.6740   19.4290 C   0  0  0  0  0  0  0  0  0  0  0  0
   11.3190   31.4790   20.8780 C   0  0  0  0  0  0  0  0  0  0  0  0
   10.1330   31.5590   21.8420 C   0  0  0  0  0  0  0  0  0  0  0  0
   10.2110   32.8190   22.7070 C   0  0  0  0  0  0  0  0  0  0  0  0
    8.8480   33.3120   23.2010 C   0  0  0  0  0  0  0  0  0  0  0  0
    7.7440   33.4010   22.1410 C   0  0  0  0  0  0  0  0  0  0  0  0
    6.3300   33.3030   22.7190 C   0  0  0  0  0  0  0  0  0  0  0  0
    5.4120   32.4830   21.8120 C   0  0  0  0  0  0  0  0  0  0  0  0
    6.0960   31.9780   20.5350 C   0  0  0  0  0  0  0  0  0  0  0  0
    5.2290   31.0660   19.6690 C   0  0  0  0  0  0  0  0  0  0  0  0
    4.9190   31.6170   18.2990 C   0  0  0  0  0  0  0  0  0  0  0  0
    5.2800   32.7190   17.9090 O   0  0  0  0  0  0  0  0  0  0  0  0
    4.1660   30.7750   17.5510 O   0  0  0  0  0  0  0  0  0  0  0  0
    7.9424   29.4038   18.2740 H   0  0  0  0  0  0  0  0  0  0  0  0
    7.1452   28.5445   16.9128 H   0  0  0  0  0  0  0  0  0  0  0  0
    8.9275   28.7687   16.9128 H   0  0  0  0  0  0  0  0  0  0  0  0
    7.7573   30.3373   15.3734 H   0  0  0  0  0  0  0  0  0  0  0  0
    6.8739   31.0073   16.8265 H   0  0  0  0  0  0  0  0  0  0  0  0
    9.8839   30.9826   16.7465 H   0  0  0  0  0  0  0  0  0  0  0  0
    8.9156   32.2750   15.8956 H   0  0  0  0  0  0  0  0  0  0  0  0
    9.2927   33.2769   17.9251 H   0  0  0  0  0  0  0  0  0  0  0  0
    7.6969   32.4313   18.2010 H   0  0  0  0  0  0  0  0  0  0  0  0
    8.8740   31.9893   20.1414 H   0  0  0  0  0  0  0  0  0  0  0  0
    9.1430   30.5098   19.0691 H   0  0  0  0  0  0  0  0  0  0  0  0
   11.3471   30.9013   18.8091 H   0  0  0  0  0  0  0  0  0  0  0  0
   11.1664   32.6906   19.1323 H   0  0  0  0  0  0  0  0  0  0  0  0
   11.7950   30.4922   20.9761 H   0  0  0  0  0  0  0  0  0  0  0  0
   12.0291   32.2795   21.1327 H   0  0  0  0  0  0  0  0  0  0  0  0
    9.1988   31.5788   21.2616 H   0  0  0  0  0  0  0  0  0  0  0  0
   10.1590   30.6795   22.5022 H   0  0  0  0  0  0  0  0  0  0  0  0
   10.8396   32.6005   23.5829 H   0  0  0  0  0  0  0  0  0  0  0  0
   10.6319   33.6161   22.0766 H   0  0  0  0  0  0  0  0  0  0  0  0
    8.5054   32.6236   23.9876 H   0  0  0  0  0  0  0  0  0  0  0  0
    9.0120   34.3431   23.5475 H   0  0  0  0  0  0  0  0  0  0  0  0
    7.8402   34.3643   21.6188 H   0  0  0  0  0  0  0  0  0  0  0  0
    7.8762   32.5435   21.4649 H   0  0  0  0  0  0  0  0  0  0  0  0
    6.3798   32.8218   23.7069 H   0  0  0  0  0  0  0  0  0  0  0  0
    5.9180   34.3197   22.8002 H   0  0  0  0  0  0  0  0  0  0  0  0
    5.0505   31.6128   22.3795 H   0  0  0  0  0  0  0  0  0  0  0  0
    4.5946   33.1482   21.4968 H   0  0  0  0  0  0  0  0  0  0  0  0
    6.3848   32.8514   19.9318 H   0  0  0  0  0  0  0  0  0  0  0  0
    6.9568   31.3749   20.8593 H   0  0  0  0  0  0  0  0  0  0  0  0
    5.7556   30.1084   19.5435 H   0  0  0  0  0  0  0  0  0  0  0  0
    4.2660   30.9610   20.1902 H   0  0  0  0  0  0  0  0  0  0  0  0
  1  2  1  0
  2  3  1  0
  3  4  1  0
  4  5  1  0
  5  6  1  0
  6  7  1  0
  7  8  1  0
  8  9  1  0
  9 10  1  0
 10 11  1  0
 11 12  1  0
 12 13  1  0
 13 14  1  0
 14 15  1  0
 15 16  1  0
 16 17  2  0
 16 18  1  0
  1 19  1  0
  1 20  1  0
  1 21  1  0
  2 22  1  0
  2 23  1  0
  3 24  1  0
  3 25  1  0
  4 26  1  0
  4 27  1  0
  5 28  1  0
  5 29  1  0
  6 30  1  0
  6 31  1  0
  7 32  1  0
  7 33  1  0
  8 34  1  0
  8 35  1  0
  9 36  1  0
  9 37  1  0
 10 38  1  0
 10 39  1  0
 11 40  1  0
 11 41  1  0
 12 42  1  0
 12 43  1  0
 13 44  1  0
 13 45  1  0
 14 46  1  0
 14 47  1  0
 15 48  1  0
 15 49  1  0
M  CHG  1  18  -1
M  END
>  <meeko>  (13) 
{"is_sidechain": [false], "free_energy": -5.779, "intermolecular_energy": -10.414, "internal_energy": -1.65}

$$$$
palmitate_Clobe_run03
     RDKit          3D

 49 48  0  0  0  0  0  0  0  0999 V2000
   12.4820   32.1790   23.5700 C   0  0  0  0  0  0  0  0  0  0  0  0
   10.9650   32.1360   23.6620 C   0  0  0  0  0  0  0  0  0  0  0  0
   10.2610   32.4690   22.3430 C   0  0  0  0  0  0  0  0  0  0  0  0
    9.9920   31.2380   21.4730 C   0  0  0  0  0  0  0  0  0  0  0  0
    9.6000   31.5810   20.0300 C   0  0  0  0  0  0  0  0  0  0  0  0
   10.7590   31.8390   19.0630 C   0  0  0  0  0  0  0  0  0  0  0  0
   10.5200   33.0240   18.1250 C   0  0  0  0  0  0  0  0  0  0  0  0
   10.3610   32.5600   16.6750 C   0  0  0  0  0  0  0  0  0  0  0  0
    8.9640   32.8880   16.1440 C   0  0  0  0  0  0  0  0  0  0  0  0
    7.9050   33.0220   17.2420 C   0  0  0  0  0  0  0  0  0  0  0  0
    6.5330   33.5370   16.7900 C   0  0  0  0  0  0  0  0  0  0  0  0
    5.3630   32.9190   17.5600 C   0  0  0  0  0  0  0  0  0  0  0  0
    5.7490   31.5710   18.1720 C   0  0  0  0  0  0  0  0  0  0  0  0
    5.3330   30.3650   17.3210 C   0  0  0  0  0  0  0  0  0  0  0  0
    6.4990   29.5950   16.7010 C   0  0  0  0  0  0  0  0  0  0  0  0
    7.6240   29.2890   17.6590 C   0  0  0  0  0  0  0  0  0  0  0  0
    8.8090   29.4320   17.3880 O   0  0  0  0  0  0  0  0  0  0  0  0
    7.1870   28.8050   18.8470 O   0  0  0  0  0  0  0  0  0  0  0  0
   12.9106   32.1911   24.5830 H   0  0  0  0  0  0  0  0  0  0  0  0
   12.8419   31.2907   23.0302 H   0  0  0  0  0  0  0  0  0  0  0  0
   12.7910   33.0863   23.0302 H   0  0  0  0  0  0  0  0  0  0  0  0
   10.6639   31.1242   23.9711 H   0  0  0  0  0  0  0  0  0  0  0  0
   10.6642   32.9030   24.3908 H   0  0  0  0  0  0  0  0  0  0  0  0
    9.2994   32.9514   22.5725 H   0  0  0  0  0  0  0  0  0  0  0  0
   10.9308   33.1304   21.7739 H   0  0  0  0  0  0  0  0  0  0  0  0
   10.9036   30.6229   21.4491 H   0  0  0  0  0  0  0  0  0  0  0  0
    9.1403   30.7054   21.9213 H   0  0  0  0  0  0  0  0  0  0  0  0
    9.0107   30.7414   19.6327 H   0  0  0  0  0  0  0  0  0  0  0  0
    9.0472   32.5301   20.0904 H   0  0  0  0  0  0  0  0  0  0  0  0
   11.6660   32.0390   19.6523 H   0  0  0  0  0  0  0  0  0  0  0  0
   10.8597   30.9431   18.4328 H   0  0  0  0  0  0  0  0  0  0  0  0
    9.6046   33.5487   18.4361 H   0  0  0  0  0  0  0  0  0  0  0  0
   11.3903   33.6943   18.1824 H   0  0  0  0  0  0  0  0  0  0  0  0
   11.1113   33.0673   16.0507 H   0  0  0  0  0  0  0  0  0  0  0  0
   10.5025   31.4698   16.6386 H   0  0  0  0  0  0  0  0  0  0  0  0
    9.0160   33.8389   15.5935 H   0  0  0  0  0  0  0  0  0  0  0  0
    8.6581   32.0484   15.5025 H   0  0  0  0  0  0  0  0  0  0  0  0
    7.7604   32.0295   17.6937 H   0  0  0  0  0  0  0  0  0  0  0  0
    8.2927   33.7799   17.9386 H   0  0  0  0  0  0  0  0  0  0  0  0
    6.5063   34.6273   16.9329 H   0  0  0  0  0  0  0  0  0  0  0  0
    6.4123   33.2507   15.7348 H   0  0  0  0  0  0  0  0  0  0  0  0
    5.0622   33.6050   18.3655 H   0  0  0  0  0  0  0  0  0  0  0  0
    4.5329   32.7556   16.8570 H   0  0  0  0  0  0  0  0  0  0  0  0
    6.8415   31.5469   18.2976 H   0  0  0  0  0  0  0  0  0  0  0  0
    5.2141   31.4881   19.1296 H   0  0  0  0  0  0  0  0  0  0  0  0
    4.7652   29.6728   17.9601 H   0  0  0  0  0  0  0  0  0  0  0  0
    4.7397   30.7620   16.4841 H   0  0  0  0  0  0  0  0  0  0  0  0
    6.1126   28.6427   16.3088 H   0  0  0  0  0  0  0  0  0  0  0  0
    6.9210   30.2418   15.9177 H   0  0  0  0  0  0  0  0  0  0  0  0
  1  2  1  0
  2  3  1  0
  3  4  1  0
  4  5  1  0
  5  6  1  0
  6  7  1  0
  7  8  1  0
  8  9  1  0
  9 10  1  0
 10 11  1  0
 11 12  1  0
 12 13  1  0
 13 14  1  0
 14 15  1  0
 15 16  1  0
 16 17  2  0
 16 18  1  0
  1 19  1  0
  1 20  1  0
  1 21  1  0
  2 22  1  0
  2 23  1  0
  3 24  1  0
  3 25  1  0
  4 26  1  0
  4 27  1  0
  5 28  1  0
  5 29  1  0
  6 30  1  0
  6 31  1  0
  7 32  1  0
  7 33  1  0
  8 34  1  0
  8 35  1  0
  9 36  1  0
  9 37  1  0
 10 38  1  0
 10 39  1  0
 11 40  1  0
 11 41  1  0
 12 42  1  0
 12 43  1  0
 13 44  1  0
 13 45  1  0
 14 46  1  0
 14 47  1  0
 15 48  1  0
 15 49  1  0
M  CHG  1  18  -1
M  END
>  <meeko>  (14) 
{"is_sidechain": [false], "free_energy": -5.757, "intermolecular_energy": -10.739, "internal_energy": -1.285}

$$$$
palmitate_Clobe_run03
     RDKit          3D

 49 48  0  0  0  0  0  0  0  0999 V2000
    5.9510   33.0130   22.5110 C   0  0  0  0  0  0  0  0  0  0  0  0
    7.1940   33.8490   22.7720 C   0  0  0  0  0  0  0  0  0  0  0  0
    8.4740   33.2430   22.1910 C   0  0  0  0  0  0  0  0  0  0  0  0
    8.2130   32.2570   21.0490 C   0  0  0  0  0  0  0  0  0  0  0  0
    9.4940   31.6940   20.4210 C   0  0  0  0  0  0  0  0  0  0  0  0
    9.8450   32.2210   19.0260 C   0  0  0  0  0  0  0  0  0  0  0  0
    9.9180   31.1260   17.9600 C   0  0  0  0  0  0  0  0  0  0  0  0
    8.8110   31.2940   16.9170 C   0  0  0  0  0  0  0  0  0  0  0  0
    8.0520   29.9820   16.7040 C   0  0  0  0  0  0  0  0  0  0  0  0
    7.3550   29.4640   17.9670 C   0  0  0  0  0  0  0  0  0  0  0  0
    5.8660   29.8060   18.0980 C   0  0  0  0  0  0  0  0  0  0  0  0
    5.5490   30.7120   19.2910 C   0  0  0  0  0  0  0  0  0  0  0  0
    5.3630   32.1650   18.8540 C   0  0  0  0  0  0  0  0  0  0  0  0
    5.1600   32.3340   17.3430 C   0  0  0  0  0  0  0  0  0  0  0  0
    5.5660   33.7030   16.7980 C   0  0  0  0  0  0  0  0  0  0  0  0
    4.4620   34.4420   16.0830 C   0  0  0  0  0  0  0  0  0  0  0  0
    4.6520   35.2480   15.1820 O   0  0  0  0  0  0  0  0  0  0  0  0
    3.2310   34.1450   16.5670 O   0  0  0  0  0  0  0  0  0  0  0  0
    5.5036   32.7121   23.4698 H   0  0  0  0  0  0  0  0  0  0  0  0
    5.2239   33.6063   21.9372 H   0  0  0  0  0  0  0  0  0  0  0  0
    6.2264   32.1158   21.9372 H   0  0  0  0  0  0  0  0  0  0  0  0
    7.0452   34.8425   22.3238 H   0  0  0  0  0  0  0  0  0  0  0  0
    7.3266   33.8974   23.8629 H   0  0  0  0  0  0  0  0  0  0  0  0
    9.1051   34.0594   21.8100 H   0  0  0  0  0  0  0  0  0  0  0  0
    8.9653   32.6822   22.9998 H   0  0  0  0  0  0  0  0  0  0  0  0
    7.6203   31.4179   21.4423 H   0  0  0  0  0  0  0  0  0  0  0  0
    7.6820   32.8096   20.2599 H   0  0  0  0  0  0  0  0  0  0  0  0
   10.3317   31.9342   21.0922 H   0  0  0  0  0  0  0  0  0  0  0  0
    9.3137   30.6163   20.2945 H   0  0  0  0  0  0  0  0  0  0  0  0
    9.0769   32.9488   18.7254 H   0  0  0  0  0  0  0  0  0  0  0  0
   10.8453   32.6737   19.0936 H   0  0  0  0  0  0  0  0  0  0  0  0
   10.8952   31.1789   17.4577 H   0  0  0  0  0  0  0  0  0  0  0  0
    9.7872   30.1512   18.4526 H   0  0  0  0  0  0  0  0  0  0  0  0
    8.1063   32.0650   17.2619 H   0  0  0  0  0  0  0  0  0  0  0  0
    9.2714   31.5905   15.9630 H   0  0  0  0  0  0  0  0  0  0  0  0
    7.2897   30.1434   15.9276 H   0  0  0  0  0  0  0  0  0  0  0  0
    8.7937   29.2243   16.4112 H   0  0  0  0  0  0  0  0  0  0  0  0
    7.4516   28.3683   17.9800 H   0  0  0  0  0  0  0  0  0  0  0  0
    7.8515   29.9682   18.8092 H   0  0  0  0  0  0  0  0  0  0  0  0
    5.5439   30.3163   17.1783 H   0  0  0  0  0  0  0  0  0  0  0  0
    5.3301   28.8591   18.2600 H   0  0  0  0  0  0  0  0  0  0  0  0
    4.6233   30.3613   19.7707 H   0  0  0  0  0  0  0  0  0  0  0  0
    6.3940   30.6673   19.9938 H   0  0  0  0  0  0  0  0  0  0  0  0
    4.4815   32.5727   19.3704 H   0  0  0  0  0  0  0  0  0  0  0  0
    6.2879   32.7000   19.1156 H   0  0  0  0  0  0  0  0  0  0  0  0
    5.7585   31.5680   16.8282 H   0  0  0  0  0  0  0  0  0  0  0  0
    4.0803   32.2318   17.1591 H   0  0  0  0  0  0  0  0  0  0  0  0
    5.9044   34.3225   17.6416 H   0  0  0  0  0  0  0  0  0  0  0  0
    6.3560   33.5228   16.0540 H   0  0  0  0  0  0  0  0  0  0  0  0
  1  2  1  0
  2  3  1  0
  3  4  1  0
  4  5  1  0
  5  6  1  0
  6  7  1  0
  7  8  1  0
  8  9  1  0
  9 10  1  0
 10 11  1  0
 11 12  1  0
 12 13  1  0
 13 14  1  0
 14 15  1  0
 15 16  1  0
 16 17  2  0
 16 18  1  0
  1 19  1  0
  1 20  1  0
  1 21  1  0
  2 22  1  0
  2 23  1  0
  3 24  1  0
  3 25  1  0
  4 26  1  0
  4 27  1  0
  5 28  1  0
  5 29  1  0
  6 30  1  0
  6 31  1  0
  7 32  1  0
  7 33  1  0
  8 34  1  0
  8 35  1  0
  9 36  1  0
  9 37  1  0
 10 38  1  0
 10 39  1  0
 11 40  1  0
 11 41  1  0
 12 42  1  0
 12 43  1  0
 13 44  1  0
 13 45  1  0
 14 46  1  0
 14 47  1  0
 15 48  1  0
 15 49  1  0
M  CHG  1  18  -1
M  END
>  <meeko>  (15) 
{"is_sidechain": [false], "free_energy": -5.711, "intermolecular_energy": -10.027, "internal_energy": -1.913}

$$$$
palmitate_Clobe_run03
     RDKit          3D

 49 48  0  0  0  0  0  0  0  0999 V2000
   12.9660   35.5590   27.4790 C   0  0  0  0  0  0  0  0  0  0  0  0
   11.6710   34.9550   26.9590 C   0  0  0  0  0  0  0  0  0  0  0  0
   11.8780   33.7070   26.0960 C   0  0  0  0  0  0  0  0  0  0  0  0
   10.5670   33.0230   25.6960 C   0  0  0  0  0  0  0  0  0  0  0  0
   10.5950   32.4240   24.2850 C   0  0  0  0  0  0  0  0  0  0  0  0
   11.9840   32.1940   23.6810 C   0  0  0  0  0  0  0  0  0  0  0  0
   11.9460   31.5820   22.2790 C   0  0  0  0  0  0  0  0  0  0  0  0
   10.5200   31.5620   21.7220 C   0  0  0  0  0  0  0  0  0  0  0  0
   10.5130   31.8610   20.2210 C   0  0  0  0  0  0  0  0  0  0  0  0
    9.2710   31.3360   19.4960 C   0  0  0  0  0  0  0  0  0  0  0  0
    8.0530   32.2670   19.4930 C   0  0  0  0  0  0  0  0  0  0  0  0
    6.7830   31.6160   20.0490 C   0  0  0  0  0  0  0  0  0  0  0  0
    5.5830   31.8680   19.1360 C   0  0  0  0  0  0  0  0  0  0  0  0
    5.8640   31.5870   17.6550 C   0  0  0  0  0  0  0  0  0  0  0  0
    5.9710   30.1040   17.3000 C   0  0  0  0  0  0  0  0  0  0  0  0
    7.3720   29.6370   16.9910 C   0  0  0  0  0  0  0  0  0  0  0  0
    8.0460   30.0660   16.0640 O   0  0  0  0  0  0  0  0  0  0  0  0
    7.7990   28.6620   17.8310 O   0  0  0  0  0  0  0  0  0  0  0  0
   12.9568   35.5547   28.5790 H   0  0  0  0  0  0  0  0  0  0  0  0
   13.8186   34.9656   27.1171 H   0  0  0  0  0  0  0  0  0  0  0  0
   13.0593   36.5936   27.1171 H   0  0  0  0  0  0  0  0  0  0  0  0
   11.0445   34.6815   27.8208 H   0  0  0  0  0  0  0  0  0  0  0  0
   11.1960   35.7135   26.3194 H   0  0  0  0  0  0  0  0  0  0  0  0
   12.4124   34.0003   25.1803 H   0  0  0  0  0  0  0  0  0  0  0  0
   12.4514   32.9862   26.6975 H   0  0  0  0  0  0  0  0  0  0  0  0
   10.3632   32.2144   26.4134 H   0  0  0  0  0  0  0  0  0  0  0  0
    9.7838   33.7953   25.7040 H   0  0  0  0  0  0  0  0  0  0  0  0
   10.0786   31.4534   24.3210 H   0  0  0  0  0  0  0  0  0  0  0  0
   10.1091   33.1683   23.6369 H   0  0  0  0  0  0  0  0  0  0  0  0
   12.5038   33.1618   23.6245 H   0  0  0  0  0  0  0  0  0  0  0  0
   12.5058   31.4778   24.3327 H   0  0  0  0  0  0  0  0  0  0  0  0
   12.5842   32.1779   21.6100 H   0  0  0  0  0  0  0  0  0  0  0  0
   12.3102   30.5459   22.3413 H   0  0  0  0  0  0  0  0  0  0  0  0
   10.0811   30.5679   21.8928 H   0  0  0  0  0  0  0  0  0  0  0  0
    9.9321   32.3365   22.2363 H   0  0  0  0  0  0  0  0  0  0  0  0
   10.5607   32.9513   20.0836 H   0  0  0  0  0  0  0  0  0  0  0  0
   11.3819   31.3455   19.7859 H   0  0  0  0  0  0  0  0  0  0  0  0
    9.5488   31.1413   18.4496 H   0  0  0  0  0  0  0  0  0  0  0  0
    8.9588   30.4397   20.0520 H   0  0  0  0  0  0  0  0  0  0  0  0
    8.2883   33.1497   20.1058 H   0  0  0  0  0  0  0  0  0  0  0  0
    7.8491   32.5285   18.4442 H   0  0  0  0  0  0  0  0  0  0  0  0
    6.9452   30.5315   20.1362 H   0  0  0  0  0  0  0  0  0  0  0  0
    6.5689   32.0584   21.0331 H   0  0  0  0  0  0  0  0  0  0  0  0
    4.7568   31.2190   19.4617 H   0  0  0  0  0  0  0  0  0  0  0  0
    5.3357   32.9367   19.2186 H   0  0  0  0  0  0  0  0  0  0  0  0
    5.0476   32.0242   17.0615 H   0  0  0  0  0  0  0  0  0  0  0  0
    6.8445   32.0333   17.4326 H   0  0  0  0  0  0  0  0  0  0  0  0
    5.5929   29.5183   18.1509 H   0  0  0  0  0  0  0  0  0  0  0  0
    5.3816   29.9572   16.3829 H   0  0  0  0  0  0  0  0  0  0  0  0
  1  2  1  0
  2  3  1  0
  3  4  1  0
  4  5  1  0
  5  6  1  0
  6  7  1  0
  7  8  1  0
  8  9  1  0
  9 10  1  0
 10 11  1  0
 11 12  1  0
 12 13  1  0
 13 14  1  0
 14 15  1  0
 15 16  1  0
 16 17  2  0
 16 18  1  0
  1 19  1  0
  1 20  1  0
  1 21  1  0
  2 22  1  0
  2 23  1  0
  3 24  1  0
  3 25  1  0
  4 26  1  0
  4 27  1  0
  5 28  1  0
  5 29  1  0
  6 30  1  0
  6 31  1  0
  7 32  1  0
  7 33  1  0
  8 34  1  0
  8 35  1  0
  9 36  1  0
  9 37  1  0
 10 38  1  0
 10 39  1  0
 11 40  1  0
 11 41  1  0
 12 42  1  0
 12 43  1  0
 13 44  1  0
 13 45  1  0
 14 46  1  0
 14 47  1  0
 15 48  1  0
 15 49  1  0
M  CHG  1  18  -1
M  END
>  <meeko>  (16) 
{"is_sidechain": [false], "free_energy": -5.683, "intermolecular_energy": -11.021, "internal_energy": -0.869}

$$$$
palmitate_Clobe_run03
     RDKit          3D

 49 48  0  0  0  0  0  0  0  0999 V2000
   12.7470   35.0470   27.2250 C   0  0  0  0  0  0  0  0  0  0  0  0
   11.2350   35.0190   27.0710 C   0  0  0  0  0  0  0  0  0  0  0  0
   10.7340   33.9150   26.1360 C   0  0  0  0  0  0  0  0  0  0  0  0
   11.8640   33.1650   25.4240 C   0  0  0  0  0  0  0  0  0  0  0  0
   11.3740   32.2490   24.2950 C   0  0  0  0  0  0  0  0  0  0  0  0
   12.3660   32.0010   23.1550 C   0  0  0  0  0  0  0  0  0  0  0  0
   11.7080   31.4810   21.8760 C   0  0  0  0  0  0  0  0  0  0  0  0
   10.1940   31.7050   21.9010 C   0  0  0  0  0  0  0  0  0  0  0  0
    9.6270   31.7890   20.4820 C   0  0  0  0  0  0  0  0  0  0  0  0
   10.7020   31.8080   19.3910 C   0  0  0  0  0  0  0  0  0  0  0  0
   10.2510   31.3490   17.9990 C   0  0  0  0  0  0  0  0  0  0  0  0
    9.4480   32.4070   17.2360 C   0  0  0  0  0  0  0  0  0  0  0  0
    8.0970   31.8560   16.7780 C   0  0  0  0  0  0  0  0  0  0  0  0
    8.1290   30.3670   16.4120 C   0  0  0  0  0  0  0  0  0  0  0  0
    6.8770   29.5880   16.8160 C   0  0  0  0  0  0  0  0  0  0  0  0
    6.4100   29.8470   18.2270 C   0  0  0  0  0  0  0  0  0  0  0  0
    7.0950   29.6420   19.2210 O   0  0  0  0  0  0  0  0  0  0  0  0
    5.1340   30.3010   18.2850 O   0  0  0  0  0  0  0  0  0  0  0  0
   13.0067   35.0518   28.2939 H   0  0  0  0  0  0  0  0  0  0  0  0
   13.1809   34.1567   26.7463 H   0  0  0  0  0  0  0  0  0  0  0  0
   13.1476   35.9527   26.7463 H   0  0  0  0  0  0  0  0  0  0  0  0
   10.7872   34.8636   28.0637 H   0  0  0  0  0  0  0  0  0  0  0  0
   10.9387   35.9793   26.6238 H   0  0  0  0  0  0  0  0  0  0  0  0
   10.1542   33.1920   26.7286 H   0  0  0  0  0  0  0  0  0  0  0  0
   10.1235   34.3983   25.3590 H   0  0  0  0  0  0  0  0  0  0  0  0
   12.5573   33.9043   24.9965 H   0  0  0  0  0  0  0  0  0  0  0  0
   12.3492   32.5231   26.1740 H   0  0  0  0  0  0  0  0  0  0  0  0
   11.1198   31.2748   24.7381 H   0  0  0  0  0  0  0  0  0  0  0  0
   10.5206   32.7713   23.8379 H   0  0  0  0  0  0  0  0  0  0  0  0
   12.8751   32.9484   22.9242 H   0  0  0  0  0  0  0  0  0  0  0  0
   13.0654   31.2243   23.4979 H   0  0  0  0  0  0  0  0  0  0  0  0
   12.1348   32.0113   21.0119 H   0  0  0  0  0  0  0  0  0  0  0  0
   11.8987   30.4002   21.8012 H   0  0  0  0  0  0  0  0  0  0  0  0
    9.7155   30.8678   22.4303 H   0  0  0  0  0  0  0  0  0  0  0  0
    9.9894   32.6551   22.4163 H   0  0  0  0  0  0  0  0  0  0  0  0
    8.9777   30.9169   20.3150 H   0  0  0  0  0  0  0  0  0  0  0  0
    9.0784   32.7397   20.4101 H   0  0  0  0  0  0  0  0  0  0  0  0
   11.0737   32.8395   19.3019 H   0  0  0  0  0  0  0  0  0  0  0  0
   11.4644   31.0827   19.7113 H   0  0  0  0  0  0  0  0  0  0  0  0
   11.1447   31.0979   17.4089 H   0  0  0  0  0  0  0  0  0  0  0  0
    9.5887   30.4827   18.1433 H   0  0  0  0  0  0  0  0  0  0  0  0
    9.2777   33.2715   17.8946 H   0  0  0  0  0  0  0  0  0  0  0  0
   10.0220   32.7031   16.3456 H   0  0  0  0  0  0  0  0  0  0  0  0
    7.3705   31.9978   17.5917 H   0  0  0  0  0  0  0  0  0  0  0  0
    7.8192   32.4047   15.8660 H   0  0  0  0  0  0  0  0  0  0  0  0
    8.2487   30.2836   15.3217 H   0  0  0  0  0  0  0  0  0  0  0  0
    8.9667   29.9251   16.9715 H   0  0  0  0  0  0  0  0  0  0  0  0
    6.0637   29.8634   16.1284 H   0  0  0  0  0  0  0  0  0  0  0  0
    7.1404   28.5213   16.7634 H   0  0  0  0  0  0  0  0  0  0  0  0
  1  2  1  0
  2  3  1  0
  3  4  1  0
  4  5  1  0
  5  6  1  0
  6  7  1  0
  7  8  1  0
  8  9  1  0
  9 10  1  0
 10 11  1  0
 11 12  1  0
 12 13  1  0
 13 14  1  0
 14 15  1  0
 15 16  1  0
 16 17  2  0
 16 18  1  0
  1 19  1  0
  1 20  1  0
  1 21  1  0
  2 22  1  0
  2 23  1  0
  3 24  1  0
  3 25  1  0
  4 26  1  0
  4 27  1  0
  5 28  1  0
  5 29  1  0
  6 30  1  0
  6 31  1  0
  7 32  1  0
  7 33  1  0
  8 34  1  0
  8 35  1  0
  9 36  1  0
  9 37  1  0
 10 38  1  0
 10 39  1  0
 11 40  1  0
 11 41  1  0
 12 42  1  0
 12 43  1  0
 13 44  1  0
 13 45  1  0
 14 46  1  0
 14 47  1  0
 15 48  1  0
 15 49  1  0
M  CHG  1  18  -1
M  END
>  <meeko>  (17) 
{"is_sidechain": [false], "free_energy": -5.675, "intermolecular_energy": -10.923, "internal_energy": -0.952}

$$$$
palmitate_Clobe_run03
     RDKit          3D

 49 48  0  0  0  0  0  0  0  0999 V2000
    8.0450   29.1610   17.2260 C   0  0  0  0  0  0  0  0  0  0  0  0
    6.6040   29.5720   16.9670 C   0  0  0  0  0  0  0  0  0  0  0  0
    5.8240   29.9100   18.2420 C   0  0  0  0  0  0  0  0  0  0  0  0
    4.9650   31.1710   18.1090 C   0  0  0  0  0  0  0  0  0  0  0  0
    5.6730   32.3190   17.3790 C   0  0  0  0  0  0  0  0  0  0  0  0
    7.0510   32.7110   17.9210 C   0  0  0  0  0  0  0  0  0  0  0  0
    7.9620   33.3470   16.8690 C   0  0  0  0  0  0  0  0  0  0  0  0
    9.0970   32.4000   16.4740 C   0  0  0  0  0  0  0  0  0  0  0  0
   10.3760   32.7200   17.2530 C   0  0  0  0  0  0  0  0  0  0  0  0
   10.9440   31.5220   18.0190 C   0  0  0  0  0  0  0  0  0  0  0  0
   10.8600   31.6030   19.5480 C   0  0  0  0  0  0  0  0  0  0  0  0
    9.4480   31.8850   20.0690 C   0  0  0  0  0  0  0  0  0  0  0  0
    9.4220   31.9550   21.5960 C   0  0  0  0  0  0  0  0  0  0  0  0
   10.7300   31.5040   22.2580 C   0  0  0  0  0  0  0  0  0  0  0  0
   11.0260   32.1740   23.5990 C   0  0  0  0  0  0  0  0  0  0  0  0
   12.4810   32.1570   23.9960 C   0  0  0  0  0  0  0  0  0  0  0  0
   13.3970   31.8980   23.2260 O   0  0  0  0  0  0  0  0  0  0  0  0
   12.6720   32.4270   25.3110 O   0  0  0  0  0  0  0  0  0  0  0  0
    8.2226   29.1103   18.3104 H   0  0  0  0  0  0  0  0  0  0  0  0
    8.2310   28.1740   16.7775 H   0  0  0  0  0  0  0  0  0  0  0  0
    8.7237   29.9014   16.7775 H   0  0  0  0  0  0  0  0  0  0  0  0
    6.6069   30.4585   16.3158 H   0  0  0  0  0  0  0  0  0  0  0  0
    6.1020   28.7117   16.5002 H   0  0  0  0  0  0  0  0  0  0  0  0
    5.1655   29.0626   18.4837 H   0  0  0  0  0  0  0  0  0  0  0  0
    6.5620   30.1001   19.0352 H   0  0  0  0  0  0  0  0  0  0  0  0
    4.0527   30.9136   17.5510 H   0  0  0  0  0  0  0  0  0  0  0  0
    4.7455   31.5220   19.1281 H   0  0  0  0  0  0  0  0  0  0  0  0
    5.7970   32.0231   16.3268 H   0  0  0  0  0  0  0  0  0  0  0  0
    5.0343   33.2024   17.5259 H   0  0  0  0  0  0  0  0  0  0  0  0
    6.9108   33.4306   18.7411 H   0  0  0  0  0  0  0  0  0  0  0  0
    7.5417   31.7857   18.2573 H   0  0  0  0  0  0  0  0  0  0  0  0
    7.3663   33.5853   15.9755 H   0  0  0  0  0  0  0  0  0  0  0  0
    8.4029   34.2597   17.2963 H   0  0  0  0  0  0  0  0  0  0  0  0
    8.7936   31.3651   16.6905 H   0  0  0  0  0  0  0  0  0  0  0  0
    9.3003   32.5258   15.4003 H   0  0  0  0  0  0  0  0  0  0  0  0
   11.1380   33.0705   16.5413 H   0  0  0  0  0  0  0  0  0  0  0  0
   10.1160   33.4855   17.9989 H   0  0  0  0  0  0  0  0  0  0  0  0
   10.3934   30.6253   17.6984 H   0  0  0  0  0  0  0  0  0  0  0  0
   12.0177   31.4988   17.7810 H   0  0  0  0  0  0  0  0  0  0  0  0
   11.2003   30.6443   19.9665 H   0  0  0  0  0  0  0  0  0  0  0  0
   11.4945   32.4448   19.8623 H   0  0  0  0  0  0  0  0  0  0  0  0
    9.1007   32.8455   19.6605 H   0  0  0  0  0  0  0  0  0  0  0  0
    8.7896   31.0642   19.7482 H   0  0  0  0  0  0  0  0  0  0  0  0
    9.2240   32.9957   21.8923 H   0  0  0  0  0  0  0  0  0  0  0  0
    8.6360   31.2643   21.9354 H   0  0  0  0  0  0  0  0  0  0  0  0
   10.6754   30.4176   22.4215 H   0  0  0  0  0  0  0  0  0  0  0  0
   11.5423   31.7964   21.5764 H   0  0  0  0  0  0  0  0  0  0  0  0
   10.6977   33.2222   23.5398 H   0  0  0  0  0  0  0  0  0  0  0  0
   10.4850   31.5979   24.3641 H   0  0  0  0  0  0  0  0  0  0  0  0
  1  2  1  0
  2  3  1  0
  3  4  1  0
  4  5  1  0
  5  6  1  0
  6  7  1  0
  7  8  1  0
  8  9  1  0
  9 10  1  0
 10 11  1  0
 11 12  1  0
 12 13  1  0
 13 14  1  0
 14 15  1  0
 15 16  1  0
 16 17  2  0
 16 18  1  0
  1 19  1  0
  1 20  1  0
  1 21  1  0
  2 22  1  0
  2 23  1  0
  3 24  1  0
  3 25  1  0
  4 26  1  0
  4 27  1  0
  5 28  1  0
  5 29  1  0
  6 30  1  0
  6 31  1  0
  7 32  1  0
  7 33  1  0
  8 34  1  0
  8 35  1  0
  9 36  1  0
  9 37  1  0
 10 38  1  0
 10 39  1  0
 11 40  1  0
 11 41  1  0
 12 42  1  0
 12 43  1  0
 13 44  1  0
 13 45  1  0
 14 46  1  0
 14 47  1  0
 15 48  1  0
 15 49  1  0
M  CHG  1  18  -1
M  END
>  <meeko>  (18) 
{"is_sidechain": [false], "free_energy": -5.667, "intermolecular_energy": -10.7, "internal_energy": -1.16}

$$$$
palmitate_Clobe_run03
     RDKit          3D

 49 48  0  0  0  0  0  0  0  0999 V2000
   10.5930   32.9680   17.3590 C   0  0  0  0  0  0  0  0  0  0  0  0
    9.1790   33.4860   17.5680 C   0  0  0  0  0  0  0  0  0  0  0  0
    8.2900   32.5360   18.3760 C   0  0  0  0  0  0  0  0  0  0  0  0
    9.0830   31.4910   19.1660 C   0  0  0  0  0  0  0  0  0  0  0  0
    9.1550   31.7840   20.6690 C   0  0  0  0  0  0  0  0  0  0  0  0
   10.5090   31.5310   21.3390 C   0  0  0  0  0  0  0  0  0  0  0  0
   10.6150   32.1230   22.7450 C   0  0  0  0  0  0  0  0  0  0  0  0
   12.0670   32.1400   23.2310 C   0  0  0  0  0  0  0  0  0  0  0  0
   12.1500   32.5690   24.6980 C   0  0  0  0  0  0  0  0  0  0  0  0
   10.7870   32.6560   25.3910 C   0  0  0  0  0  0  0  0  0  0  0  0
   10.7220   33.5570   26.6290 C   0  0  0  0  0  0  0  0  0  0  0  0
   11.6840   34.7470   26.5720 C   0  0  0  0  0  0  0  0  0  0  0  0
   12.7670   34.6400   27.6460 C   0  0  0  0  0  0  0  0  0  0  0  0
   12.7160   33.3330   28.4470 C   0  0  0  0  0  0  0  0  0  0  0  0
   13.7730   33.2200   29.5440 C   0  0  0  0  0  0  0  0  0  0  0  0
   13.5090   34.0800   30.7550 C   0  0  0  0  0  0  0  0  0  0  0  0
   12.4510   34.0860   31.3710 O   0  0  0  0  0  0  0  0  0  0  0  0
   14.5580   34.8770   31.0740 O   0  0  0  0  0  0  0  0  0  0  0  0
   11.0679   32.7940   18.3358 H   0  0  0  0  0  0  0  0  0  0  0  0
   10.5581   32.0243   16.7950 H   0  0  0  0  0  0  0  0  0  0  0  0
   11.1760   33.7109   16.7950 H   0  0  0  0  0  0  0  0  0  0  0  0
    9.2360   34.4465   18.1012 H   0  0  0  0  0  0  0  0  0  0  0  0
    8.7221   33.5860   16.5724 H   0  0  0  0  0  0  0  0  0  0  0  0
    7.6951   33.1317   19.0840 H   0  0  0  0  0  0  0  0  0  0  0  0
    7.6575   31.9921   17.6590 H   0  0  0  0  0  0  0  0  0  0  0  0
    8.6038   30.5110   19.0251 H   0  0  0  0  0  0  0  0  0  0  0  0
   10.1141   31.5108   18.7833 H   0  0  0  0  0  0  0  0  0  0  0  0
    8.8987   32.8433   20.8179 H   0  0  0  0  0  0  0  0  0  0  0  0
    8.4543   31.0802   21.1419 H   0  0  0  0  0  0  0  0  0  0  0  0
   10.6664   30.4444   21.4062 H   0  0  0  0  0  0  0  0  0  0  0  0
   11.2727   32.0263   20.7214 H   0  0  0  0  0  0  0  0  0  0  0  0
   10.2295   33.1531   22.7305 H   0  0  0  0  0  0  0  0  0  0  0  0
   10.0254   31.4976   23.4315 H   0  0  0  0  0  0  0  0  0  0  0  0
   12.4930   31.1312   23.1267 H   0  0  0  0  0  0  0  0  0  0  0  0
   12.6316   32.8618   22.6225 H   0  0  0  0  0  0  0  0  0  0  0  0
   12.7690   31.8383   25.2392 H   0  0  0  0  0  0  0  0  0  0  0  0
   12.5842   33.5795   24.7138 H   0  0  0  0  0  0  0  0  0  0  0  0
   10.0601   33.0368   24.6584 H   0  0  0  0  0  0  0  0  0  0  0  0
   10.5706   31.6393   25.7510 H   0  0  0  0  0  0  0  0  0  0  0  0
    9.6964   33.9431   26.7247 H   0  0  0  0  0  0  0  0  0  0  0  0
   11.0197   32.9424   27.4914 H   0  0  0  0  0  0  0  0  0  0  0  0
   12.1629   34.7731   25.5820 H   0  0  0  0  0  0  0  0  0  0  0  0
   11.1081   35.6669   26.7511 H   0  0  0  0  0  0  0  0  0  0  0  0
   13.7495   34.7086   27.1561 H   0  0  0  0  0  0  0  0  0  0  0  0
   12.5943   35.4600   28.3586 H   0  0  0  0  0  0  0  0  0  0  0  0
   11.7242   33.2564   28.9165 H   0  0  0  0  0  0  0  0  0  0  0  0
   12.9182   32.5208   27.7332 H   0  0  0  0  0  0  0  0  0  0  0  0
   13.8189   32.1706   29.8707 H   0  0  0  0  0  0  0  0  0  0  0  0
   14.7180   33.5749   29.1070 H   0  0  0  0  0  0  0  0  0  0  0  0
  1  2  1  0
  2  3  1  0
  3  4  1  0
  4  5  1  0
  5  6  1  0
  6  7  1  0
  7  8  1  0
  8  9  1  0
  9 10  1  0
 10 11  1  0
 11 12  1  0
 12 13  1  0
 13 14  1  0
 14 15  1  0
 15 16  1  0
 16 17  2  0
 16 18  1  0
  1 19  1  0
  1 20  1  0
  1 21  1  0
  2 22  1  0
  2 23  1  0
  3 24  1  0
  3 25  1  0
  4 26  1  0
  4 27  1  0
  5 28  1  0
  5 29  1  0
  6 30  1  0
  6 31  1  0
  7 32  1  0
  7 33  1  0
  8 34  1  0
  8 35  1  0
  9 36  1  0
  9 37  1  0
 10 38  1  0
 10 39  1  0
 11 40  1  0
 11 41  1  0
 12 42  1  0
 12 43  1  0
 13 44  1  0
 13 45  1  0
 14 46  1  0
 14 47  1  0
 15 48  1  0
 15 49  1  0
M  CHG  1  18  -1
M  END
>  <meeko>  (19) 
{"is_sidechain": [false], "free_energy": -5.619, "intermolecular_energy": -10.913, "internal_energy": -0.861}

$$$$
palmitate_Clobe_run03
     RDKit          3D

 49 48  0  0  0  0  0  0  0  0999 V2000
    5.4580   30.8760   18.7140 C   0  0  0  0  0  0  0  0  0  0  0  0
    5.2360   30.4720   17.2660 C   0  0  0  0  0  0  0  0  0  0  0  0
    6.3520   29.5900   16.6970 C   0  0  0  0  0  0  0  0  0  0  0  0
    7.7510   30.0150   17.1530 C   0  0  0  0  0  0  0  0  0  0  0  0
    8.3880   31.0850   16.2570 C   0  0  0  0  0  0  0  0  0  0  0  0
    8.2360   32.5340   16.7300 C   0  0  0  0  0  0  0  0  0  0  0  0
    9.1610   32.8960   17.8940 C   0  0  0  0  0  0  0  0  0  0  0  0
   10.5530   32.2880   17.7050 C   0  0  0  0  0  0  0  0  0  0  0  0
   11.1310   31.8140   19.0410 C   0  0  0  0  0  0  0  0  0  0  0  0
   10.0850   31.6860   20.1520 C   0  0  0  0  0  0  0  0  0  0  0  0
   10.6320   31.4150   21.5590 C   0  0  0  0  0  0  0  0  0  0  0  0
   10.1090   32.3910   22.6170 C   0  0  0  0  0  0  0  0  0  0  0  0
   10.8560   32.2290   23.9410 C   0  0  0  0  0  0  0  0  0  0  0  0
   10.2480   33.0350   25.0960 C   0  0  0  0  0  0  0  0  0  0  0  0
   11.2730   33.7160   26.0020 C   0  0  0  0  0  0  0  0  0  0  0  0
   11.4290   33.0730   27.3580 C   0  0  0  0  0  0  0  0  0  0  0  0
   10.4970   32.8500   28.1200 O   0  0  0  0  0  0  0  0  0  0  0  0
   12.7200   32.7970   27.6650 O   0  0  0  0  0  0  0  0  0  0  0  0
    5.0357   30.1074   19.3780 H   0  0  0  0  0  0  0  0  0  0  0  0
    6.5367   30.9740   18.9061 H   0  0  0  0  0  0  0  0  0  0  0  0
    4.9624   31.8391   18.9061 H   0  0  0  0  0  0  0  0  0  0  0  0
    4.2878   29.9182   17.2010 H   0  0  0  0  0  0  0  0  0  0  0  0
    5.2217   31.3975   16.6716 H   0  0  0  0  0  0  0  0  0  0  0  0
    6.1784   28.5537   17.0224 H   0  0  0  0  0  0  0  0  0  0  0  0
    6.3212   29.6909   15.6021 H   0  0  0  0  0  0  0  0  0  0  0  0
    7.6774   30.4153   18.1749 H   0  0  0  0  0  0  0  0  0  0  0  0
    8.3934   29.1237   17.0993 H   0  0  0  0  0  0  0  0  0  0  0  0
    9.4635   30.8659   16.1837 H   0  0  0  0  0  0  0  0  0  0  0  0
    7.8507   31.0278   15.2988 H   0  0  0  0  0  0  0  0  0  0  0  0
    8.4616   33.2015   15.8853 H   0  0  0  0  0  0  0  0  0  0  0  0
    7.2029   32.6505   17.0892 H   0  0  0  0  0  0  0  0  0  0  0  0
    9.2526   33.9906   17.9524 H   0  0  0  0  0  0  0  0  0  0  0  0
    8.7279   32.4928   18.8213 H   0  0  0  0  0  0  0  0  0  0  0  0
   10.4809   31.4305   17.0198 H   0  0  0  0  0  0  0  0  0  0  0  0
   11.2185   33.0589   17.2892 H   0  0  0  0  0  0  0  0  0  0  0  0
   11.5978   30.8298   18.8881 H   0  0  0  0  0  0  0  0  0  0  0  0
   11.8553   32.5752   19.3667 H   0  0  0  0  0  0  0  0  0  0  0  0
    9.5143   32.6257   20.1875 H   0  0  0  0  0  0  0  0  0  0  0  0
    9.4813   30.8039   19.8923 H   0  0  0  0  0  0  0  0  0  0  0  0
   10.3442   30.3951   21.8538 H   0  0  0  0  0  0  0  0  0  0  0  0
   11.7234   31.5438   21.5118 H   0  0  0  0  0  0  0  0  0  0  0  0
   10.2444   33.4202   22.2530 H   0  0  0  0  0  0  0  0  0  0  0  0
    9.0443   32.1761   22.7909 H   0  0  0  0  0  0  0  0  0  0  0  0
   10.8455   31.1644   24.2174 H   0  0  0  0  0  0  0  0  0  0  0  0
   11.8750   32.6123   23.7836 H   0  0  0  0  0  0  0  0  0  0  0  0
    9.5979   33.8122   24.6678 H   0  0  0  0  0  0  0  0  0  0  0  0
    9.7024   32.3167   25.7255 H   0  0  0  0  0  0  0  0  0  0  0  0
   12.2492   33.6928   25.4956 H   0  0  0  0  0  0  0  0  0  0  0  0
   10.9066   34.7380   26.1788 H   0  0  0  0  0  0  0  0  0  0  0  0
  1  2  1  0
  2  3  1  0
  3  4  1  0
  4  5  1  0
  5  6  1  0
  6  7  1  0
  7  8  1  0
  8  9  1  0
  9 10  1  0
 10 11  1  0
 11 12  1  0
 12 13  1  0
 13 14  1  0
 14 15  1  0
 15 16  1  0
 16 17  2  0
 16 18  1  0
  1 19  1  0
  1 20  1  0
  1 21  1  0
  2 22  1  0
  2 23  1  0
  3 24  1  0
  3 25  1  0
  4 26  1  0
  4 27  1  0
  5 28  1  0
  5 29  1  0
  6 30  1  0
  6 31  1  0
  7 32  1  0
  7 33  1  0
  8 34  1  0
  8 35  1  0
  9 36  1  0
  9 37  1  0
 10 38  1  0
 10 39  1  0
 11 40  1  0
 11 41  1  0
 12 42  1  0
 12 43  1  0
 13 44  1  0
 13 45  1  0
 14 46  1  0
 14 47  1  0
 15 48  1  0
 15 49  1  0
M  CHG  1  18  -1
M  END
>  <meeko>  (20) 
{"is_sidechain": [false], "free_energy": -5.614, "intermolecular_energy": -10.79, "internal_energy": -0.974}

$$$$
