palmitate_Clobe_run01
     RDKit          3D

 49 48  0  0  0  0  0  0  0  0999 V2000
    8.1650   33.2170   17.4500 C   0  0  0  0  0  0  0  0  0  0  0  0
    9.1460   32.4250   18.3000 C   0  0  0  0  0  0  0  0  0  0  0  0
    9.1880   30.9330   17.9580 C   0  0  0  0  0  0  0  0  0  0  0  0
    8.2500   30.5470   16.8110 C   0  0  0  0  0  0  0  0  0  0  0  0
    7.1570   29.5530   17.2220 C   0  0  0  0  0  0  0  0  0  0  0  0
    6.2610   29.9840   18.3870 C   0  0  0  0  0  0  0  0  0  0  0  0
    5.2920   31.1110   18.0280 C   0  0  0  0  0  0  0  0  0  0  0  0
    5.0310   32.0220   19.2300 C   0  0  0  0  0  0  0  0  0  0  0  0
    6.0490   31.7650   20.3440 C   0  0  0  0  0  0  0  0  0  0  0  0
    5.6050   32.2890   21.7140 C   0  0  0  0  0  0  0  0  0  0  0  0
    6.5540   33.2870   22.3880 C   0  0  0  0  0  0  0  0  0  0  0  0
    8.0100   33.1470   21.9390 C   0  0  0  0  0  0  0  0  0  0  0  0
    8.9750   33.3300   23.1110 C   0  0  0  0  0  0  0  0  0  0  0  0
   10.2310   32.4550   23.0200 C   0  0  0  0  0  0  0  0  0  0  0  0
   10.3120   31.5910   21.7610 C   0  0  0  0  0  0  0  0  0  0  0  0
   11.7070   31.4150   21.2140 C   0  0  0  0  0  0  0  0  0  0  0  0
   11.9560   31.2040   20.0350 O   0  0  0  0  0  0  0  0  0  0  0  0
   12.6610   31.4820   22.1740 O   0  0  0  0  0  0  0  0  0  0  0  0
    7.4774   33.7722   18.1050 H   0  0  0  0  0  0  0  0  0  0  0  0
    8.7182   33.9247   16.8151 H   0  0  0  0  0  0  0  0  0  0  0  0
    7.5898   32.5271   16.8151 H   0  0  0  0  0  0  0  0  0  0  0  0
   10.1521   32.8442   18.1516 H   0  0  0  0  0  0  0  0  0  0  0  0
    8.8082   32.5073   19.3436 H   0  0  0  0  0  0  0  0  0  0  0  0
   10.2168   30.6695   17.6712 H   0  0  0  0  0  0  0  0  0  0  0  0
    8.8529   30.3849   18.8509 H   0  0  0  0  0  0  0  0  0  0  0  0
    7.7662   31.4604   16.4347 H   0  0  0  0  0  0  0  0  0  0  0  0
    8.8640   30.0532   16.0435 H   0  0  0  0  0  0  0  0  0  0  0  0
    6.5124   29.3810   16.3474 H   0  0  0  0  0  0  0  0  0  0  0  0
    7.6885   28.6561   17.5728 H   0  0  0  0  0  0  0  0  0  0  0  0
    5.6752   29.1131   18.7162 H   0  0  0  0  0  0  0  0  0  0  0  0
    6.9221   30.3662   19.1788 H   0  0  0  0  0  0  0  0  0  0  0  0
    5.7239   31.7089   17.2120 H   0  0  0  0  0  0  0  0  0  0  0  0
    4.3367   30.6626   17.7175 H   0  0  0  0  0  0  0  0  0  0  0  0
    5.1061   33.0715   18.9091 H   0  0  0  0  0  0  0  0  0  0  0  0
    4.0243   31.8093   19.6191 H   0  0  0  0  0  0  0  0  0  0  0  0
    6.2117   30.6800   20.4228 H   0  0  0  0  0  0  0  0  0  0  0  0
    6.9670   32.3073   20.0734 H   0  0  0  0  0  0  0  0  0  0  0  0
    4.6308   32.7836   21.5863 H   0  0  0  0  0  0  0  0  0  0  0  0
    5.5783   31.4101   22.3749 H   0  0  0  0  0  0  0  0  0  0  0  0
    6.2133   34.3056   22.1505 H   0  0  0  0  0  0  0  0  0  0  0  0
    6.5279   33.0781   23.4677 H   0  0  0  0  0  0  0  0  0  0  0  0
    8.1568   32.1459   21.5074 H   0  0  0  0  0  0  0  0  0  0  0  0
    8.2190   33.9280   21.1931 H   0  0  0  0  0  0  0  0  0  0  0  0
    9.2880   34.3841   23.1414 H   0  0  0  0  0  0  0  0  0  0  0  0
    8.4366   33.0247   24.0204 H   0  0  0  0  0  0  0  0  0  0  0  0
   11.1113   33.1143   23.0415 H   0  0  0  0  0  0  0  0  0  0  0  0
   10.1918   31.7618   23.8732 H   0  0  0  0  0  0  0  0  0  0  0  0
    9.9082   30.5961   22.0001 H   0  0  0  0  0  0  0  0  0  0  0  0
    9.7341   32.1133   20.9844 H   0  0  0  0  0  0  0  0  0  0  0  0
  1  2  1  0
  2  3  1  0
  3  4  1  0
  4  5  1  0
  5  6  1  0
  6  7  1  0
  7  8  1  0
  8  9  1  0
  9 10  1  0
 10 11  1  0
 11 12  1  0
 12 13  1  0
 13 14  1  0
 14 15  1  0
 15 16  1  0
 16 17  2  0
 16 18  1  0
  1 19  1  0
  1 20  1  0
  1 21  1  0
  2 22  1  0
  2 23  1  0
  3 24  1  0
  3 25  1  0
  4 26  1  0
  4 27  1  0
  5 28  1  0
  5 29  1  0
  6 30  1  0
  6 31  1  0
  7 32  1  0
  7 33  1  0
  8 34  1  0
  8 35  1  0
  9 36  1  0
  9 37  1  0
 10 38  1  0
 10 39  1  0
 11 40  1  0
 11 41  1  0
 12 42  1  0
 12 43  1  0
 13 44  1  0
 13 45  1  0
 14 46  1  0
 14 47  1  0
 15 48  1  0
 15 49  1  0
M  CHG  1  18  -1
M  END
>  <meeko>  (1) 
{"is_sidechain": [false], "free_energy": -5.955, "intermolecular_energy": -10.829, "internal_energy": -1.986}

$$$$
palmitate_Clobe_run01
     RDKit          3D

 49 48  0  0  0  0  0  0  0  0999 V2000
    4.9710   34.3660   16.3670 C   0  0  0  0  0  0  0  0  0  0  0  0
    3.8590   33.3880   16.7110 C   0  0  0  0  0  0  0  0  0  0  0  0
    4.3660   32.0310   17.2070 C   0  0  0  0  0  0  0  0  0  0  0  0
    5.5420   32.1440   18.1820 C   0  0  0  0  0  0  0  0  0  0  0  0
    5.2440   31.5670   19.5710 C   0  0  0  0  0  0  0  0  0  0  0  0
    6.2010   31.9840   20.6910 C   0  0  0  0  0  0  0  0  0  0  0  0
    5.4890   32.5280   21.9310 C   0  0  0  0  0  0  0  0  0  0  0  0
    6.4250   33.4030   22.7690 C   0  0  0  0  0  0  0  0  0  0  0  0
    7.8070   33.5070   22.1190 C   0  0  0  0  0  0  0  0  0  0  0  0
    8.9650   33.2860   23.0970 C   0  0  0  0  0  0  0  0  0  0  0  0
   10.1660   32.5070   22.5480 C   0  0  0  0  0  0  0  0  0  0  0  0
    9.7850   31.4440   21.5140 C   0  0  0  0  0  0  0  0  0  0  0  0
   10.3500   31.7830   20.1340 C   0  0  0  0  0  0  0  0  0  0  0  0
    9.3050   31.7400   19.0120 C   0  0  0  0  0  0  0  0  0  0  0  0
    9.6240   30.7570   17.8860 C   0  0  0  0  0  0  0  0  0  0  0  0
    8.4360   29.9670   17.3940 C   0  0  0  0  0  0  0  0  0  0  0  0
    8.0950   29.9060   16.2200 O   0  0  0  0  0  0  0  0  0  0  0  0
    7.7600   29.3540   18.3960 O   0  0  0  0  0  0  0  0  0  0  0  0
    5.4154   34.7568   17.2942 H   0  0  0  0  0  0  0  0  0  0  0  0
    5.7442   33.8500   15.7789 H   0  0  0  0  0  0  0  0  0  0  0  0
    4.5579   35.1988   15.7789 H   0  0  0  0  0  0  0  0  0  0  0  0
    3.2347   33.8348   17.4988 H   0  0  0  0  0  0  0  0  0  0  0  0
    3.2956   33.2022   15.7847 H   0  0  0  0  0  0  0  0  0  0  0  0
    3.5391   31.5138   17.7156 H   0  0  0  0  0  0  0  0  0  0  0  0
    4.7236   31.4752   16.3277 H   0  0  0  0  0  0  0  0  0  0  0  0
    6.3998   31.6022   17.7569 H   0  0  0  0  0  0  0  0  0  0  0  0
    5.7493   33.2160   18.3152 H   0  0  0  0  0  0  0  0  0  0  0  0
    4.2311   31.8862   19.8577 H   0  0  0  0  0  0  0  0  0  0  0  0
    5.3616   30.4779   19.4709 H   0  0  0  0  0  0  0  0  0  0  0  0
    6.7940   31.1061   20.9871 H   0  0  0  0  0  0  0  0  0  0  0  0
    6.8278   32.7967   20.2952 H   0  0  0  0  0  0  0  0  0  0  0  0
    4.6246   33.1295   21.6132 H   0  0  0  0  0  0  0  0  0  0  0  0
    5.1642   31.6766   22.5472 H   0  0  0  0  0  0  0  0  0  0  0  0
    5.9924   34.4105   22.8575 H   0  0  0  0  0  0  0  0  0  0  0  0
    6.5385   32.9437   23.7621 H   0  0  0  0  0  0  0  0  0  0  0  0
    7.8747   32.7501   21.3237 H   0  0  0  0  0  0  0  0  0  0  0  0
    7.9041   34.5320   21.7318 H   0  0  0  0  0  0  0  0  0  0  0  0
    9.3241   34.2734   23.4227 H   0  0  0  0  0  0  0  0  0  0  0  0
    8.5549   32.6673   23.9088 H   0  0  0  0  0  0  0  0  0  0  0  0
   10.8569   33.2205   22.0751 H   0  0  0  0  0  0  0  0  0  0  0  0
   10.6256   31.9810   23.3977 H   0  0  0  0  0  0  0  0  0  0  0  0
   10.1853   30.4713   21.8360 H   0  0  0  0  0  0  0  0  0  0  0  0
    8.6880   31.4086   21.4407 H   0  0  0  0  0  0  0  0  0  0  0  0
   10.7764   32.7963   20.1727 H   0  0  0  0  0  0  0  0  0  0  0  0
   11.1052   31.0184   19.8993 H   0  0  0  0  0  0  0  0  0  0  0  0
    8.3386   31.4550   19.4534 H   0  0  0  0  0  0  0  0  0  0  0  0
    9.2919   32.7419   18.5582 H   0  0  0  0  0  0  0  0  0  0  0  0
   10.0340   31.3258   17.0384 H   0  0  0  0  0  0  0  0  0  0  0  0
   10.3374   30.0280   18.2979 H   0  0  0  0  0  0  0  0  0  0  0  0
  1  2  1  0
  2  3  1  0
  3  4  1  0
  4  5  1  0
  5  6  1  0
  6  7  1  0
  7  8  1  0
  8  9  1  0
  9 10  1  0
 10 11  1  0
 11 12  1  0
 12 13  1  0
 13 14  1  0
 14 15  1  0
 15 16  1  0
 16 17  2  0
 16 18  1  0
  1 19  1  0
  1 20  1  0
  1 21  1  0
  2 22  1  0
  2 23  1  0
  3 24  1  0
  3 25  1  0
  4 26  1  0
  4 27  1  0
  5 28  1  0
  5 29  1  0
  6 30  1  0
  6 31  1  0
  7 32  1  0
  7 33  1  0
  8 34  1  0
  8 35  1  0
  9 36  1  0
  9 37  1  0
 10 38  1  0
 10 39  1  0
 11 40  1  0
 11 41  1  0
 12 42  1  0
 12 43  1  0
 13 44  1  0
 13 45  1  0
 14 46  1  0
 14 47  1  0
 15 48  1  0
 15 49  1  0
M  CHG  1  18  -1
M  END
>  <meeko>  (2) 
{"is_sidechain": [false], "free_energy": -5.93, "intermolecular_energy": -11.26, "internal_energy": -1.51}

$$$$
palmitate_Clobe_run01
     RDKit          3D

 49 48  0  0  0  0  0  0  0  0999 V2000
    3.9520   33.3190   16.8610 C   0  0  0  0  0  0  0  0  0  0  0  0
    5.3590   33.0110   17.3470 C   0  0  0  0  0  0  0  0  0  0  0  0
    5.3970   32.2610   18.6820 C   0  0  0  0  0  0  0  0  0  0  0  0
    5.1120   30.7620   18.5420 C   0  0  0  0  0  0  0  0  0  0  0  0
    5.9470   30.0800   17.4520 C   0  0  0  0  0  0  0  0  0  0  0  0
    7.2010   29.3410   17.9300 C   0  0  0  0  0  0  0  0  0  0  0  0
    8.4720   29.7480   17.1820 C   0  0  0  0  0  0  0  0  0  0  0  0
    8.1620   30.7500   16.0670 C   0  0  0  0  0  0  0  0  0  0  0  0
    8.9830   32.0300   16.2360 C   0  0  0  0  0  0  0  0  0  0  0  0
    9.1800   32.4460   17.6970 C   0  0  0  0  0  0  0  0  0  0  0  0
   10.6330   32.5330   18.1780 C   0  0  0  0  0  0  0  0  0  0  0  0
   10.9450   31.6020   19.3530 C   0  0  0  0  0  0  0  0  0  0  0  0
    9.8230   31.6200   20.3920 C   0  0  0  0  0  0  0  0  0  0  0  0
   10.3020   31.9450   21.8120 C   0  0  0  0  0  0  0  0  0  0  0  0
   11.7400   31.5210   22.1090 C   0  0  0  0  0  0  0  0  0  0  0  0
   12.3140   32.1080   23.3750 C   0  0  0  0  0  0  0  0  0  0  0  0
   13.4830   32.4480   23.5000 O   0  0  0  0  0  0  0  0  0  0  0  0
   11.4050   32.1910   24.3770 O   0  0  0  0  0  0  0  0  0  0  0  0
    3.2887   33.4642   17.7264 H   0  0  0  0  0  0  0  0  0  0  0  0
    3.9666   34.2352   16.2524 H   0  0  0  0  0  0  0  0  0  0  0  0
    3.5825   32.4805   16.2524 H   0  0  0  0  0  0  0  0  0  0  0  0
    5.8619   32.3944   16.5875 H   0  0  0  0  0  0  0  0  0  0  0  0
    5.8638   33.9755   17.5048 H   0  0  0  0  0  0  0  0  0  0  0  0
    6.3959   32.3868   19.1251 H   0  0  0  0  0  0  0  0  0  0  0  0
    4.6059   32.6856   19.3175 H   0  0  0  0  0  0  0  0  0  0  0  0
    5.3302   30.2748   19.5038 H   0  0  0  0  0  0  0  0  0  0  0  0
    4.0558   30.6591   18.2524 H   0  0  0  0  0  0  0  0  0  0  0  0
    5.3014   29.3511   16.9402 H   0  0  0  0  0  0  0  0  0  0  0  0
    6.3101   30.8922   16.8050 H   0  0  0  0  0  0  0  0  0  0  0  0
    7.3436   29.5533   18.9998 H   0  0  0  0  0  0  0  0  0  0  0  0
    7.0397   28.2705   17.7348 H   0  0  0  0  0  0  0  0  0  0  0  0
    9.1746   30.2080   17.8925 H   0  0  0  0  0  0  0  0  0  0  0  0
    8.9123   28.8478   16.7284 H   0  0  0  0  0  0  0  0  0  0  0  0
    8.4034   30.2934   15.0958 H   0  0  0  0  0  0  0  0  0  0  0  0
    7.0942   31.0096   16.1161 H   0  0  0  0  0  0  0  0  0  0  0  0
    9.9729   31.8700   15.7838 H   0  0  0  0  0  0  0  0  0  0  0  0
    8.4229   32.8388   15.7439 H   0  0  0  0  0  0  0  0  0  0  0  0
    8.7209   33.4367   17.8302 H   0  0  0  0  0  0  0  0  0  0  0  0
    8.7143   31.6513   18.2983 H   0  0  0  0  0  0  0  0  0  0  0  0
   11.2937   32.2683   17.3393 H   0  0  0  0  0  0  0  0  0  0  0  0
   10.7961   33.5626   18.5292 H   0  0  0  0  0  0  0  0  0  0  0  0
   11.0660   30.5762   18.9746 H   0  0  0  0  0  0  0  0  0  0  0  0
   11.8696   31.9515   19.8357 H   0  0  0  0  0  0  0  0  0  0  0  0
    9.0847   32.3785   20.0926 H   0  0  0  0  0  0  0  0  0  0  0  0
    9.3960   30.6067   20.4212 H   0  0  0  0  0  0  0  0  0  0  0  0
   10.2272   33.0325   21.9592 H   0  0  0  0  0  0  0  0  0  0  0  0
    9.6595   31.3727   22.4973 H   0  0  0  0  0  0  0  0  0  0  0  0
   11.7644   30.4247   22.1962 H   0  0  0  0  0  0  0  0  0  0  0  0
   12.3564   31.8991   21.2800 H   0  0  0  0  0  0  0  0  0  0  0  0
  1  2  1  0
  2  3  1  0
  3  4  1  0
  4  5  1  0
  5  6  1  0
  6  7  1  0
  7  8  1  0
  8  9  1  0
  9 10  1  0
 10 11  1  0
 11 12  1  0
 12 13  1  0
 13 14  1  0
 14 15  1  0
 15 16  1  0
 16 17  2  0
 16 18  1  0
  1 19  1  0
  1 20  1  0
  1 21  1  0
  2 22  1  0
  2 23  1  0
  3 24  1  0
  3 25  1  0
  4 26  1  0
  4 27  1  0
  5 28  1  0
  5 29  1  0
  6 30  1  0
  6 31  1  0
  7 32  1  0
  7 33  1  0
  8 34  1  0
  8 35  1  0
  9 36  1  0
  9 37  1  0
 10 38  1  0
 10 39  1  0
 11 40  1  0
 11 41  1  0
 12 42  1  0
 12 43  1  0
 13 44  1  0
 13 45  1  0
 14 46  1  0
 14 47  1  0
 15 48  1  0
 15 49  1  0
M  CHG  1  18  -1
M  END
>  <meeko>  (3) 
{"is_sidechain": [false], "free_energy": -5.758, "intermolecular_energy": -10.752, "internal_energy": -1.704}

$$$$
palmitate_Clobe_run01
     RDKit          3D

 49 48  0  0  0  0  0  0  0  0999 V2000
    5.7550   32.9780   22.6080 C   0  0  0  0  0  0  0  0  0  0  0  0
    6.3520   32.3920   21.3380 C   0  0  0  0  0  0  0  0  0  0  0  0
    5.3170   31.7430   20.4150 C   0  0  0  0  0  0  0  0  0  0  0  0
    5.5820   32.0040   18.9300 C   0  0  0  0  0  0  0  0  0  0  0  0
    4.9550   30.9550   18.0030 C   0  0  0  0  0  0  0  0  0  0  0  0
    5.8910   30.3330   16.9620 C   0  0  0  0  0  0  0  0  0  0  0  0
    6.8410   29.2850   17.5450 C   0  0  0  0  0  0  0  0  0  0  0  0
    8.2870   29.5520   17.1220 C   0  0  0  0  0  0  0  0  0  0  0  0
    8.3890   30.8320   16.2890 C   0  0  0  0  0  0  0  0  0  0  0  0
    9.3120   31.8910   16.8990 C   0  0  0  0  0  0  0  0  0  0  0  0
    9.0900   32.1960   18.3850 C   0  0  0  0  0  0  0  0  0  0  0  0
   10.2880   31.8380   19.2690 C   0  0  0  0  0  0  0  0  0  0  0  0
    9.9120   31.8570   20.7510 C   0  0  0  0  0  0  0  0  0  0  0  0
   11.0310   31.3680   21.6790 C   0  0  0  0  0  0  0  0  0  0  0  0
   10.9370   31.8850   23.1140 C   0  0  0  0  0  0  0  0  0  0  0  0
   12.2660   32.2270   23.7410 C   0  0  0  0  0  0  0  0  0  0  0  0
   12.3860   32.8210   24.8050 O   0  0  0  0  0  0  0  0  0  0  0  0
   13.3210   31.8370   22.9860 O   0  0  0  0  0  0  0  0  0  0  0  0
    6.2291   32.5126   23.4847 H   0  0  0  0  0  0  0  0  0  0  0  0
    5.9312   34.0636   22.6290 H   0  0  0  0  0  0  0  0  0  0  0  0
    4.6729   32.7817   22.6290 H   0  0  0  0  0  0  0  0  0  0  0  0
    6.8529   33.2000   20.7846 H   0  0  0  0  0  0  0  0  0  0  0  0
    7.0500   31.5997   21.6463 H   0  0  0  0  0  0  0  0  0  0  0  0
    5.3292   30.6565   20.5861 H   0  0  0  0  0  0  0  0  0  0  0  0
    4.3408   32.1895   20.6552 H   0  0  0  0  0  0  0  0  0  0  0  0
    5.1684   32.9897   18.6705 H   0  0  0  0  0  0  0  0  0  0  0  0
    6.6710   31.9566   18.7825 H   0  0  0  0  0  0  0  0  0  0  0  0
    4.5630   30.1418   18.6316 H   0  0  0  0  0  0  0  0  0  0  0  0
    4.1854   31.4902   17.4274 H   0  0  0  0  0  0  0  0  0  0  0  0
    5.2779   29.8533   16.1849 H   0  0  0  0  0  0  0  0  0  0  0  0
    6.5133   31.1458   16.5595 H   0  0  0  0  0  0  0  0  0  0  0  0
    6.7772   29.3142   18.6428 H   0  0  0  0  0  0  0  0  0  0  0  0
    6.5441   28.2963   17.1651 H   0  0  0  0  0  0  0  0  0  0  0  0
    8.9110   29.6580   18.0217 H   0  0  0  0  0  0  0  0  0  0  0  0
    8.6338   28.7071   16.5089 H   0  0  0  0  0  0  0  0  0  0  0  0
    8.7736   30.5684   15.2927 H   0  0  0  0  0  0  0  0  0  0  0  0
    7.3807   31.2697   16.2471 H   0  0  0  0  0  0  0  0  0  0  0  0
   10.3490   31.5450   16.7771 H   0  0  0  0  0  0  0  0  0  0  0  0
    9.0858   32.8262   16.3659 H   0  0  0  0  0  0  0  0  0  0  0  0
    8.8872   33.2717   18.4929 H   0  0  0  0  0  0  0  0  0  0  0  0
    8.2452   31.5759   18.7193 H   0  0  0  0  0  0  0  0  0  0  0  0
   10.6417   30.8312   19.0022 H   0  0  0  0  0  0  0  0  0  0  0  0
   11.0775   32.5855   19.1021 H   0  0  0  0  0  0  0  0  0  0  0  0
    9.6557   32.8895   21.0307 H   0  0  0  0  0  0  0  0  0  0  0  0
    9.0661   31.1650   20.8762 H   0  0  0  0  0  0  0  0  0  0  0  0
   10.9979   30.2689   21.7072 H   0  0  0  0  0  0  0  0  0  0  0  0
   11.9724   31.7602   21.2667 H   0  0  0  0  0  0  0  0  0  0  0  0
   10.3135   32.7912   23.1131 H   0  0  0  0  0  0  0  0  0  0  0  0
   10.5070   31.0696   23.7142 H   0  0  0  0  0  0  0  0  0  0  0  0
  1  2  1  0
  2  3  1  0
  3  4  1  0
  4  5  1  0
  5  6  1  0
  6  7  1  0
  7  8  1  0
  8  9  1  0
  9 10  1  0
 10 11  1  0
 11 12  1  0
 12 13  1  0
 13 14  1  0
 14 15  1  0
 15 16  1  0
 16 17  2  0
 16 18  1  0
  1 19  1  0
  1 20  1  0
  1 21  1  0
  2 22  1  0
  2 23  1  0
  3 24  1  0
  3 25  1  0
  4 26  1  0
  4 27  1  0
  5 28  1  0
  5 29  1  0
  6 30  1  0
  6 31  1  0
  7 32  1  0
  7 33  1  0
  8 34  1  0
  8 35  1  0
  9 36  1  0
  9 37  1  0
 10 38  1  0
 10 39  1  0
 11 40  1  0
 11 41  1  0
 12 42  1  0
 12 43  1  0
 13 44  1  0
 13 45  1  0
 14 46  1  0
 14 47  1  0
 15 48  1  0
 15 49  1  0
M  CHG  1  18  -1
M  END
>  <meeko>  (4) 
{"is_sidechain": [false], "free_energy": -5.708, "intermolecular_energy": -10.965, "internal_energy": -1.4}

$$$$
palmitate_Clobe_run01
     RDKit          3D

 49 48  0  0  0  0  0  0  0  0999 V2000
   10.9000   32.2670   24.1950 C   0  0  0  0  0  0  0  0  0  0  0  0
   10.1080   32.5450   22.9280 C   0  0  0  0  0  0  0  0  0  0  0  0
    8.9180   33.4860   23.1420 C   0  0  0  0  0  0  0  0  0  0  0  0
    7.8470   33.3650   22.0540 C   0  0  0  0  0  0  0  0  0  0  0  0
    6.4180   33.2990   22.6070 C   0  0  0  0  0  0  0  0  0  0  0  0
    5.4210   32.4710   21.7910 C   0  0  0  0  0  0  0  0  0  0  0  0
    6.0420   31.8020   20.5640 C   0  0  0  0  0  0  0  0  0  0  0  0
    5.1750   32.0130   19.3200 C   0  0  0  0  0  0  0  0  0  0  0  0
    5.3050   30.8340   18.3530 C   0  0  0  0  0  0  0  0  0  0  0  0
    6.3610   29.8070   18.7750 C   0  0  0  0  0  0  0  0  0  0  0  0
    7.3950   29.4330   17.7070 C   0  0  0  0  0  0  0  0  0  0  0  0
    7.3660   30.3480   16.4800 C   0  0  0  0  0  0  0  0  0  0  0  0
    8.7010   31.0710   16.2920 C   0  0  0  0  0  0  0  0  0  0  0  0
    8.7120   32.5010   16.8460 C   0  0  0  0  0  0  0  0  0  0  0  0
    8.7210   32.5900   18.3720 C   0  0  0  0  0  0  0  0  0  0  0  0
    9.8580   31.8500   19.0320 C   0  0  0  0  0  0  0  0  0  0  0  0
    9.7080   31.0050   19.9050 O   0  0  0  0  0  0  0  0  0  0  0  0
   11.0750   32.2430   18.5810 O   0  0  0  0  0  0  0  0  0  0  0  0
   10.2753   32.4863   25.0734 H   0  0  0  0  0  0  0  0  0  0  0  0
   11.2015   31.2093   24.2143 H   0  0  0  0  0  0  0  0  0  0  0  0
   11.7964   32.9042   24.2143 H   0  0  0  0  0  0  0  0  0  0  0  0
   10.7832   33.0009   22.1889 H   0  0  0  0  0  0  0  0  0  0  0  0
    9.7003   31.5826   22.5850 H   0  0  0  0  0  0  0  0  0  0  0  0
    8.4574   33.2513   24.1130 H   0  0  0  0  0  0  0  0  0  0  0  0
    9.3054   34.5149   23.1050 H   0  0  0  0  0  0  0  0  0  0  0  0
    7.9238   34.2394   21.3911 H   0  0  0  0  0  0  0  0  0  0  0  0
    8.0319   32.4204   21.5216 H   0  0  0  0  0  0  0  0  0  0  0  0
    6.4675   32.8666   23.6172 H   0  0  0  0  0  0  0  0  0  0  0  0
    6.0403   34.3317   22.5780 H   0  0  0  0  0  0  0  0  0  0  0  0
    5.0050   31.6874   22.4413 H   0  0  0  0  0  0  0  0  0  0  0  0
    4.6489   33.1638   21.4251 H   0  0  0  0  0  0  0  0  0  0  0  0
    7.0376   32.2343   20.3850 H   0  0  0  0  0  0  0  0  0  0  0  0
    6.1171   30.7217   20.7570 H   0  0  0  0  0  0  0  0  0  0  0  0
    4.1234   32.1117   19.6272 H   0  0  0  0  0  0  0  0  0  0  0  0
    5.5146   32.9251   18.8074 H   0  0  0  0  0  0  0  0  0  0  0  0
    4.3313   30.3260   18.2913 H   0  0  0  0  0  0  0  0  0  0  0  0
    5.6248   31.2455   17.3843 H   0  0  0  0  0  0  0  0  0  0  0  0
    6.9030   30.2168   19.6401 H   0  0  0  0  0  0  0  0  0  0  0  0
    5.8070   28.8814   18.9902 H   0  0  0  0  0  0  0  0  0  0  0  0
    8.3967   29.4878   18.1583 H   0  0  0  0  0  0  0  0  0  0  0  0
    7.1480   28.4190   17.3595 H   0  0  0  0  0  0  0  0  0  0  0  0
    7.1583   29.7416   15.5860 H   0  0  0  0  0  0  0  0  0  0  0  0
    6.5808   31.1037   16.6298 H   0  0  0  0  0  0  0  0  0  0  0  0
    9.4838   30.4937   16.8058 H   0  0  0  0  0  0  0  0  0  0  0  0
    8.8763   31.1450   15.2086 H   0  0  0  0  0  0  0  0  0  0  0  0
    9.6109   33.0093   16.4670 H   0  0  0  0  0  0  0  0  0  0  0  0
    7.7769   32.9734   16.5108 H   0  0  0  0  0  0  0  0  0  0  0  0
    8.7908   33.6508   18.6545 H   0  0  0  0  0  0  0  0  0  0  0  0
    7.7923   32.1142   18.7200 H   0  0  0  0  0  0  0  0  0  0  0  0
  1  2  1  0
  2  3  1  0
  3  4  1  0
  4  5  1  0
  5  6  1  0
  6  7  1  0
  7  8  1  0
  8  9  1  0
  9 10  1  0
 10 11  1  0
 11 12  1  0
 12 13  1  0
 13 14  1  0
 14 15  1  0
 15 16  1  0
 16 17  2  0
 16 18  1  0
  1 19  1  0
  1 20  1  0
  1 21  1  0
  2 22  1  0
  2 23  1  0
  3 24  1  0
  3 25  1  0
  4 26  1  0
  4 27  1  0
  5 28  1  0
  5 29  1  0
  6 30  1  0
  6 31  1  0
  7 32  1  0
  7 33  1  0
  8 34  1  0
  8 35  1  0
  9 36  1  0
  9 37  1  0
 10 38  1  0
 10 39  1  0
 11 40  1  0
 11 41  1  0
 12 42  1  0
 12 43  1  0
 13 44  1  0
 13 45  1  0
 14 46  1  0
 14 47  1  0
 15 48  1  0
 15 49  1  0
M  CHG  1  18  -1
M  END
>  <meeko>  (5) 
{"is_sidechain": [false], "free_energy": -5.581, "intermolecular_energy": -10.442, "internal_energy": -1.692}

$$$$
palmitate_Clobe_run01
     RDKit          3D

 49 48  0  0  0  0  0  0  0  0999 V2000
    9.4380   33.2640   16.7960 C   0  0  0  0  0  0  0  0  0  0  0  0
    8.2990   32.3050   16.4880 C   0  0  0  0  0  0  0  0  0  0  0  0
    8.6130   30.8470   16.8360 C   0  0  0  0  0  0  0  0  0  0  0  0
    7.5050   29.8740   16.4230 C   0  0  0  0  0  0  0  0  0  0  0  0
    6.3610   29.7810   17.4410 C   0  0  0  0  0  0  0  0  0  0  0  0
    5.1510   30.6810   17.1750 C   0  0  0  0  0  0  0  0  0  0  0  0
    4.7710   31.5620   18.3670 C   0  0  0  0  0  0  0  0  0  0  0  0
    5.3650   31.0180   19.6690 C   0  0  0  0  0  0  0  0  0  0  0  0
    5.6860   32.1540   20.6430 C   0  0  0  0  0  0  0  0  0  0  0  0
    7.1740   32.2690   20.9840 C   0  0  0  0  0  0  0  0  0  0  0  0
    8.1300   31.4720   20.0880 C   0  0  0  0  0  0  0  0  0  0  0  0
    9.6060   31.8110   20.3140 C   0  0  0  0  0  0  0  0  0  0  0  0
   10.0770   31.3590   21.6970 C   0  0  0  0  0  0  0  0  0  0  0  0
   10.2290   32.5070   22.7030 C   0  0  0  0  0  0  0  0  0  0  0  0
   10.9070   32.1150   24.0150 C   0  0  0  0  0  0  0  0  0  0  0  0
   12.4000   32.3290   24.0330 C   0  0  0  0  0  0  0  0  0  0  0  0
   13.1760   31.7910   23.2540 O   0  0  0  0  0  0  0  0  0  0  0  0
   12.8020   33.1560   25.0290 O   0  0  0  0  0  0  0  0  0  0  0  0
    9.5520   33.3600   17.8859 H   0  0  0  0  0  0  0  0  0  0  0  0
   10.3715   32.8759   16.3625 H   0  0  0  0  0  0  0  0  0  0  0  0
    9.2146   34.2500   16.3625 H   0  0  0  0  0  0  0  0  0  0  0  0
    7.4159   32.6176   17.0646 H   0  0  0  0  0  0  0  0  0  0  0  0
    8.1268   32.3473   15.4024 H   0  0  0  0  0  0  0  0  0  0  0  0
    9.5415   30.5575   16.3221 H   0  0  0  0  0  0  0  0  0  0  0  0
    8.7089   30.7864   17.9301 H   0  0  0  0  0  0  0  0  0  0  0  0
    7.0888   30.2083   15.4612 H   0  0  0  0  0  0  0  0  0  0  0  0
    7.9603   28.8749   16.3560 H   0  0  0  0  0  0  0  0  0  0  0  0
    6.0085   28.7391   17.4569 H   0  0  0  0  0  0  0  0  0  0  0  0
    6.7843   30.1275   18.3953 H   0  0  0  0  0  0  0  0  0  0  0  0
    5.3835   31.3332   16.3203 H   0  0  0  0  0  0  0  0  0  0  0  0
    4.2944   30.0204   16.9752 H   0  0  0  0  0  0  0  0  0  0  0  0
    5.1517   32.5799   18.1967 H   0  0  0  0  0  0  0  0  0  0  0  0
    3.6750   31.5684   18.4601 H   0  0  0  0  0  0  0  0  0  0  0  0
    4.6400   30.3365   20.1378 H   0  0  0  0  0  0  0  0  0  0  0  0
    6.2980   30.4854   19.4325 H   0  0  0  0  0  0  0  0  0  0  0  0
    5.3588   33.1020   20.1911 H   0  0  0  0  0  0  0  0  0  0  0  0
    5.1569   31.9324   21.5816 H   0  0  0  0  0  0  0  0  0  0  0  0
    7.4543   33.3305   20.9158 H   0  0  0  0  0  0  0  0  0  0  0  0
    7.2826   31.8400   21.9911 H   0  0  0  0  0  0  0  0  0  0  0  0
    7.9842   30.4006   20.2899 H   0  0  0  0  0  0  0  0  0  0  0  0
    7.8934   31.7369   19.0469 H   0  0  0  0  0  0  0  0  0  0  0  0
   10.2109   31.3052   19.5470 H   0  0  0  0  0  0  0  0  0  0  0  0
    9.7246   32.9026   20.2476 H   0  0  0  0  0  0  0  0  0  0  0  0
    9.3442   30.6423   22.0962 H   0  0  0  0  0  0  0  0  0  0  0  0
   11.0736   30.9121   21.5667 H   0  0  0  0  0  0  0  0  0  0  0  0
   10.8271   33.3004   22.2310 H   0  0  0  0  0  0  0  0  0  0  0  0
    9.2107   32.8322   22.9624 H   0  0  0  0  0  0  0  0  0  0  0  0
   10.4637   32.7144   24.8238 H   0  0  0  0  0  0  0  0  0  0  0  0
   10.7431   31.0348   24.1426 H   0  0  0  0  0  0  0  0  0  0  0  0
  1  2  1  0
  2  3  1  0
  3  4  1  0
  4  5  1  0
  5  6  1  0
  6  7  1  0
  7  8  1  0
  8  9  1  0
  9 10  1  0
 10 11  1  0
 11 12  1  0
 12 13  1  0
 13 14  1  0
 14 15  1  0
 15 16  1  0
 16 17  2  0
 16 18  1  0
  1 19  1  0
  1 20  1  0
  1 21  1  0
  2 22  1  0
  2 23  1  0
  3 24  1  0
  3 25  1  0
  4 26  1  0
  4 27  1  0
  5 28  1  0
  5 29  1  0
  6 30  1  0
  6 31  1  0
  7 32  1  0
  7 33  1  0
  8 34  1  0
  8 35  1  0
  9 36  1  0
  9 37  1  0
 10 38  1  0
 10 39  1  0
 11 40  1  0
 11 41  1  0
 12 42  1  0
 12 43  1  0
 13 44  1  0
 13 45  1  0
 14 46  1  0
 14 47  1  0
 15 48  1  0
 15 49  1  0
M  CHG  1  18  -1
M  END
>  <meeko>  (6) 
{"is_sidechain": [false], "free_energy": -5.575, "intermolecular_energy": -10.744, "internal_energy": -1.381}

$$$$
palmitate_Clobe_run01
     RDKit          3D

 49 48  0  0  0  0  0  0  0  0999 V2000
    5.3780   32.4410   21.8800 C   0  0  0  0  0  0  0  0  0  0  0  0
    6.3540   33.3130   22.6540 C   0  0  0  0  0  0  0  0  0  0  0  0
    7.7680   33.3240   22.0660 C   0  0  0  0  0  0  0  0  0  0  0  0
    8.8610   33.5150   23.1210 C   0  0  0  0  0  0  0  0  0  0  0  0
   10.0380   32.5440   22.9660 C   0  0  0  0  0  0  0  0  0  0  0  0
   10.1040   31.7750   21.6430 C   0  0  0  0  0  0  0  0  0  0  0  0
   11.5200   31.3400   21.2600 C   0  0  0  0  0  0  0  0  0  0  0  0
   11.7860   31.5720   19.7700 C   0  0  0  0  0  0  0  0  0  0  0  0
   10.4850   31.8660   19.0190 C   0  0  0  0  0  0  0  0  0  0  0  0
   10.6290   32.9430   17.9390 C   0  0  0  0  0  0  0  0  0  0  0  0
   10.1830   32.5410   16.5290 C   0  0  0  0  0  0  0  0  0  0  0  0
    8.7350   32.0470   16.4610 C   0  0  0  0  0  0  0  0  0  0  0  0
    7.7710   33.0670   17.0680 C   0  0  0  0  0  0  0  0  0  0  0  0
    6.6640   32.4370   17.9230 C   0  0  0  0  0  0  0  0  0  0  0  0
    7.1170   31.2520   18.7750 C   0  0  0  0  0  0  0  0  0  0  0  0
    6.4190   29.9530   18.4560 C   0  0  0  0  0  0  0  0  0  0  0  0
    5.3790   29.8760   17.8150 O   0  0  0  0  0  0  0  0  0  0  0  0
    7.0460   28.8740   18.9860 O   0  0  0  0  0  0  0  0  0  0  0  0
    4.7490   31.8790   22.5860 H   0  0  0  0  0  0  0  0  0  0  0  0
    4.7411   33.0764   21.2470 H   0  0  0  0  0  0  0  0  0  0  0  0
    5.9379   31.7368   21.2470 H   0  0  0  0  0  0  0  0  0  0  0  0
    5.9711   34.3442   22.6576 H   0  0  0  0  0  0  0  0  0  0  0  0
    6.4298   32.8905   23.6668 H   0  0  0  0  0  0  0  0  0  0  0  0
    7.9406   32.3659   21.5539 H   0  0  0  0  0  0  0  0  0  0  0  0
    7.8276   34.1791   21.3766 H   0  0  0  0  0  0  0  0  0  0  0  0
    9.2450   34.5428   23.0423 H   0  0  0  0  0  0  0  0  0  0  0  0
    8.4032   33.3143   24.1009 H   0  0  0  0  0  0  0  0  0  0  0  0
   10.9677   33.1235   23.0652 H   0  0  0  0  0  0  0  0  0  0  0  0
    9.8978   31.7811   23.7459 H   0  0  0  0  0  0  0  0  0  0  0  0
    9.4755   30.8765   21.7308 H   0  0  0  0  0  0  0  0  0  0  0  0
    9.7504   32.4560   20.8549 H   0  0  0  0  0  0  0  0  0  0  0  0
   12.2454   31.9206   21.8487 H   0  0  0  0  0  0  0  0  0  0  0  0
   11.6230   30.2650   21.4692 H   0  0  0  0  0  0  0  0  0  0  0  0
   12.4684   32.4271   19.6554 H   0  0  0  0  0  0  0  0  0  0  0  0
   12.2353   30.6607   19.3485 H   0  0  0  0  0  0  0  0  0  0  0  0
   10.1427   30.9369   18.5399 H   0  0  0  0  0  0  0  0  0  0  0  0
    9.7649   32.2458   19.7587 H   0  0  0  0  0  0  0  0  0  0  0  0
   10.0290   33.8118   18.2474 H   0  0  0  0  0  0  0  0  0  0  0  0
   11.7074   33.1463   17.8634 H   0  0  0  0  0  0  0  0  0  0  0  0
   10.2831   33.4160   15.8700 H   0  0  0  0  0  0  0  0  0  0  0  0
   10.8242   31.7044   16.2143 H   0  0  0  0  0  0  0  0  0  0  0  0
    8.4628   31.8789   15.4086 H   0  0  0  0  0  0  0  0  0  0  0  0
    8.6595   31.1126   17.0365 H   0  0  0  0  0  0  0  0  0  0  0  0
    8.3486   33.7567   17.7010 H   0  0  0  0  0  0  0  0  0  0  0  0
    7.2768   33.5803   16.2300 H   0  0  0  0  0  0  0  0  0  0  0  0
    6.2668   33.2115   18.5955 H   0  0  0  0  0  0  0  0  0  0  0  0
    5.9109   32.0480   17.2219 H   0  0  0  0  0  0  0  0  0  0  0  0
    8.1967   31.1096   18.6202 H   0  0  0  0  0  0  0  0  0  0  0  0
    6.8623   31.4981   19.8164 H   0  0  0  0  0  0  0  0  0  0  0  0
  1  2  1  0
  2  3  1  0
  3  4  1  0
  4  5  1  0
  5  6  1  0
  6  7  1  0
  7  8  1  0
  8  9  1  0
  9 10  1  0
 10 11  1  0
 11 12  1  0
 12 13  1  0
 13 14  1  0
 14 15  1  0
 15 16  1  0
 16 17  2  0
 16 18  1  0
  1 19  1  0
  1 20  1  0
  1 21  1  0
  2 22  1  0
  2 23  1  0
  3 24  1  0
  3 25  1  0
  4 26  1  0
  4 27  1  0
  5 28  1  0
  5 29  1  0
  6 30  1  0
  6 31  1  0
  7 32  1  0
  7 33  1  0
  8 34  1  0
  8 35  1  0
  9 36  1  0
  9 37  1  0
 10 38  1  0
 10 39  1  0
 11 40  1  0
 11 41  1  0
 12 42  1  0
 12 43  1  0
 13 44  1  0
 13 45  1  0
 14 46  1  0
 14 47  1  0
 15 48  1  0
 15 49  1  0
M  CHG  1  18  -1
M  END
>  <meeko>  (7) 
{"is_sidechain": [false], "free_energy": -5.492, "intermolecular_energy": -10.541, "internal_energy": -1.433}

$$$$
palmitate_Clobe_run01
     RDKit          3D

 49 48  0  0  0  0  0  0  0  0999 V2000
   10.7470   33.1590   25.8470 C   0  0  0  0  0  0  0  0  0  0  0  0
   12.1360   32.9630   25.2610 C   0  0  0  0  0  0  0  0  0  0  0  0
   12.1380   32.2230   23.9200 C   0  0  0  0  0  0  0  0  0  0  0  0
   10.7390   31.8110   23.4540 C   0  0  0  0  0  0  0  0  0  0  0  0
   10.3070   32.4820   22.1450 C   0  0  0  0  0  0  0  0  0  0  0  0
   10.1900   31.5630   20.9260 C   0  0  0  0  0  0  0  0  0  0  0  0
    8.9200   31.7950   20.1060 C   0  0  0  0  0  0  0  0  0  0  0  0
    9.2500   32.0620   18.6350 C   0  0  0  0  0  0  0  0  0  0  0  0
    8.5610   33.3360   18.1410 C   0  0  0  0  0  0  0  0  0  0  0  0
    7.5820   33.0970   16.9870 C   0  0  0  0  0  0  0  0  0  0  0  0
    6.1530   33.6070   17.2050 C   0  0  0  0  0  0  0  0  0  0  0  0
    5.1210   32.4880   17.3680 C   0  0  0  0  0  0  0  0  0  0  0  0
    5.2220   31.8330   18.7460 C   0  0  0  0  0  0  0  0  0  0  0  0
    5.7570   30.3960   18.7090 C   0  0  0  0  0  0  0  0  0  0  0  0
    5.9900   29.8420   17.3030 C   0  0  0  0  0  0  0  0  0  0  0  0
    7.4170   29.4470   17.0180 C   0  0  0  0  0  0  0  0  0  0  0  0
    8.0690   29.8770   16.0750 O   0  0  0  0  0  0  0  0  0  0  0  0
    7.8980   28.5350   17.8980 O   0  0  0  0  0  0  0  0  0  0  0  0
   10.8078   33.1504   26.9453 H   0  0  0  0  0  0  0  0  0  0  0  0
   10.3396   34.1235   25.5099 H   0  0  0  0  0  0  0  0  0  0  0  0
   10.0886   32.3449   25.5099 H   0  0  0  0  0  0  0  0  0  0  0  0
   12.5935   33.9523   25.1127 H   0  0  0  0  0  0  0  0  0  0  0  0
   12.7011   32.3426   25.9722 H   0  0  0  0  0  0  0  0  0  0  0  0
   12.5799   32.8820   23.1581 H   0  0  0  0  0  0  0  0  0  0  0  0
   12.7206   31.3002   24.0578 H   0  0  0  0  0  0  0  0  0  0  0  0
   10.7284   30.7210   23.3063 H   0  0  0  0  0  0  0  0  0  0  0  0
   10.0312   32.1341   24.2316 H   0  0  0  0  0  0  0  0  0  0  0  0
    9.3235   32.9451   22.3129 H   0  0  0  0  0  0  0  0  0  0  0  0
   11.1060   33.1976   21.9010 H   0  0  0  0  0  0  0  0  0  0  0  0
   11.0604   31.7348   20.2757 H   0  0  0  0  0  0  0  0  0  0  0  0
   10.1476   30.5303   21.3025 H   0  0  0  0  0  0  0  0  0  0  0  0
    8.2813   30.9020   20.1738 H   0  0  0  0  0  0  0  0  0  0  0  0
    8.4006   32.6759   20.5112 H   0  0  0  0  0  0  0  0  0  0  0  0
   10.3386   32.1762   18.5255 H   0  0  0  0  0  0  0  0  0  0  0  0
    8.8893   31.2134   18.0352 H   0  0  0  0  0  0  0  0  0  0  0  0
    8.0064   33.7793   18.9812 H   0  0  0  0  0  0  0  0  0  0  0  0
    9.3497   34.0024   17.7616 H   0  0  0  0  0  0  0  0  0  0  0  0
    7.9855   33.5964   16.0938 H   0  0  0  0  0  0  0  0  0  0  0  0
    7.4967   32.0046   16.8903 H   0  0  0  0  0  0  0  0  0  0  0  0
    6.1399   34.2272   18.1134 H   0  0  0  0  0  0  0  0  0  0  0  0
    5.8728   34.1757   16.3061 H   0  0  0  0  0  0  0  0  0  0  0  0
    4.1127   32.9103   17.2454 H   0  0  0  0  0  0  0  0  0  0  0  0
    5.3182   31.7210   16.6046 H   0  0  0  0  0  0  0  0  0  0  0  0
    5.8963   32.4385   19.3695 H   0  0  0  0  0  0  0  0  0  0  0  0
    4.2017   31.7853   19.1543 H   0  0  0  0  0  0  0  0  0  0  0  0
    6.7140   30.3717   19.2508 H   0  0  0  0  0  0  0  0  0  0  0  0
    4.9850   29.7629   19.1707 H   0  0  0  0  0  0  0  0  0  0  0  0
    5.3546   28.9534   17.1736 H   0  0  0  0  0  0  0  0  0  0  0  0
    5.7422   30.6520   16.6012 H   0  0  0  0  0  0  0  0  0  0  0  0
  1  2  1  0
  2  3  1  0
  3  4  1  0
  4  5  1  0
  5  6  1  0
  6  7  1  0
  7  8  1  0
  8  9  1  0
  9 10  1  0
 10 11  1  0
 11 12  1  0
 12 13  1  0
 13 14  1  0
 14 15  1  0
 15 16  1  0
 16 17  2  0
 16 18  1  0
  1 19  1  0
  1 20  1  0
  1 21  1  0
  2 22  1  0
  2 23  1  0
  3 24  1  0
  3 25  1  0
  4 26  1  0
  4 27  1  0
  5 28  1  0
  5 29  1  0
  6 30  1  0
  6 31  1  0
  7 32  1  0
  7 33  1  0
  8 34  1  0
  8 35  1  0
  9 36  1  0
  9 37  1  0
 10 38  1  0
 10 39  1  0
 11 40  1  0
 11 41  1  0
 12 42  1  0
 12 43  1  0
 13 44  1  0
 13 45  1  0
 14 46  1  0
 14 47  1  0
 15 48  1  0
 15 49  1  0
M  CHG  1  18  -1
M  END
>  <meeko>  (8) 
{"is_sidechain": [false], "free_energy": -5.385, "intermolecular_energy": -10.439, "internal_energy": -1.339}

$$$$
palmitate_Clobe_run01
     RDKit          3D

 49 48  0  0  0  0  0  0  0  0999 V2000
   12.6280   35.1900   27.0720 C   0  0  0  0  0  0  0  0  0  0  0  0
   11.9880   33.8110   27.0830 C   0  0  0  0  0  0  0  0  0  0  0  0
   11.9900   33.1220   25.7150 C   0  0  0  0  0  0  0  0  0  0  0  0
   10.5910   32.7270   25.2340 C   0  0  0  0  0  0  0  0  0  0  0  0
   10.4910   32.5650   23.7120 C   0  0  0  0  0  0  0  0  0  0  0  0
   11.7140   31.9550   23.0200 C   0  0  0  0  0  0  0  0  0  0  0  0
   11.4600   31.5690   21.5620 C   0  0  0  0  0  0  0  0  0  0  0  0
    9.9630   31.4370   21.2760 C   0  0  0  0  0  0  0  0  0  0  0  0
    9.6310   31.9030   19.8560 C   0  0  0  0  0  0  0  0  0  0  0  0
   10.8010   31.7650   18.8760 C   0  0  0  0  0  0  0  0  0  0  0  0
   10.8030   32.7420   17.6940 C   0  0  0  0  0  0  0  0  0  0  0  0
    9.4000   33.1480   17.2330 C   0  0  0  0  0  0  0  0  0  0  0  0
    8.9400   32.3060   16.0420 C   0  0  0  0  0  0  0  0  0  0  0  0
    8.1770   31.0370   16.4410 C   0  0  0  0  0  0  0  0  0  0  0  0
    7.0250   31.2710   17.4180 C   0  0  0  0  0  0  0  0  0  0  0  0
    6.5090   30.0190   18.0850 C   0  0  0  0  0  0  0  0  0  0  0  0
    7.1490   29.3650   18.8980 O   0  0  0  0  0  0  0  0  0  0  0  0
    5.2690   29.6710   17.6640 O   0  0  0  0  0  0  0  0  0  0  0  0
   12.7855   35.5294   28.1064 H   0  0  0  0  0  0  0  0  0  0  0  0
   13.5955   35.1411   26.5508 H   0  0  0  0  0  0  0  0  0  0  0  0
   11.9661   35.8973   26.5508 H   0  0  0  0  0  0  0  0  0  0  0  0
   12.5404   33.1771   27.7922 H   0  0  0  0  0  0  0  0  0  0  0  0
   10.9358   33.9465   27.3739 H   0  0  0  0  0  0  0  0  0  0  0  0
   12.4313   33.8095   24.9784 H   0  0  0  0  0  0  0  0  0  0  0  0
   12.5731   32.1949   25.8179 H   0  0  0  0  0  0  0  0  0  0  0  0
   10.3179   31.7710   25.7047 H   0  0  0  0  0  0  0  0  0  0  0  0
    9.9088   33.5417   25.5184 H   0  0  0  0  0  0  0  0  0  0  0  0
    9.6265   31.9193   23.4983 H   0  0  0  0  0  0  0  0  0  0  0  0
   10.4010   33.5851   23.3104 H   0  0  0  0  0  0  0  0  0  0  0  0
   12.5325   32.6893   23.0483 H   0  0  0  0  0  0  0  0  0  0  0  0
   11.9644   31.0304   23.5608 H   0  0  0  0  0  0  0  0  0  0  0  0
   11.8832   32.3446   20.9068 H   0  0  0  0  0  0  0  0  0  0  0  0
   11.9375   30.5965   21.3715 H   0  0  0  0  0  0  0  0  0  0  0  0
    9.6674   30.3833   21.3868 H   0  0  0  0  0  0  0  0  0  0  0  0
    9.4136   32.0692   21.9891 H   0  0  0  0  0  0  0  0  0  0  0  0
    8.7899   31.3018   19.4804 H   0  0  0  0  0  0  0  0  0  0  0  0
    9.3856   32.9735   19.9168 H   0  0  0  0  0  0  0  0  0  0  0  0
   11.7330   31.9166   19.4402 H   0  0  0  0  0  0  0  0  0  0  0  0
   10.7024   30.7627   18.4337 H   0  0  0  0  0  0  0  0  0  0  0  0
   11.3470   33.6498   17.9939 H   0  0  0  0  0  0  0  0  0  0  0  0
   11.2839   32.2265   16.8496 H   0  0  0  0  0  0  0  0  0  0  0  0
    8.6947   33.0067   18.0652 H   0  0  0  0  0  0  0  0  0  0  0  0
    9.4290   34.2026   16.9216 H   0  0  0  0  0  0  0  0  0  0  0  0
    8.2815   32.9239   15.4138 H   0  0  0  0  0  0  0  0  0  0  0  0
    9.8460   31.9817   15.5091 H   0  0  0  0  0  0  0  0  0  0  0  0
    7.7660   30.5818   15.5278 H   0  0  0  0  0  0  0  0  0  0  0  0
    8.8987   30.3875   16.9580 H   0  0  0  0  0  0  0  0  0  0  0  0
    7.3731   31.9599   18.2018 H   0  0  0  0  0  0  0  0  0  0  0  0
    6.1910   31.6789   16.8281 H   0  0  0  0  0  0  0  0  0  0  0  0
  1  2  1  0
  2  3  1  0
  3  4  1  0
  4  5  1  0
  5  6  1  0
  6  7  1  0
  7  8  1  0
  8  9  1  0
  9 10  1  0
 10 11  1  0
 11 12  1  0
 12 13  1  0
 13 14  1  0
 14 15  1  0
 15 16  1  0
 16 17  2  0
 16 18  1  0
  1 19  1  0
  1 20  1  0
  1 21  1  0
  2 22  1  0
  2 23  1  0
  3 24  1  0
  3 25  1  0
  4 26  1  0
  4 27  1  0
  5 28  1  0
  5 29  1  0
  6 30  1  0
  6 31  1  0
  7 32  1  0
  7 33  1  0
  8 34  1  0
  8 35  1  0
  9 36  1  0
  9 37  1  0
 10 38  1  0
 10 39  1  0
 11 40  1  0
 11 41  1  0
 12 42  1  0
 12 43  1  0
 13 44  1  0
 13 45  1  0
 14 46  1  0
 14 47  1  0
 15 48  1  0
 15 49  1  0
M  CHG  1  18  -1
M  END
>  <meeko>  (9) 
{"is_sidechain": [false], "free_energy": -5.378, "intermolecular_energy": -10.705, "internal_energy": -1.061}

$$$$
palmitate_Clobe_run01
     RDKit          3D

 49 48  0  0  0  0  0  0  0  0999 V2000
    7.4140   29.7230   16.6490 C   0  0  0  0  0  0  0  0  0  0  0  0
    6.2900   29.7470   17.6720 C   0  0  0  0  0  0  0  0  0  0  0  0
    5.1410   30.6890   17.3010 C   0  0  0  0  0  0  0  0  0  0  0  0
    4.8470   31.7390   18.3770 C   0  0  0  0  0  0  0  0  0  0  0  0
    5.1470   31.2560   19.8010 C   0  0  0  0  0  0  0  0  0  0  0  0
    6.0560   32.1600   20.6380 C   0  0  0  0  0  0  0  0  0  0  0  0
    5.4510   32.5530   21.9870 C   0  0  0  0  0  0  0  0  0  0  0  0
    6.4320   33.3910   22.8110 C   0  0  0  0  0  0  0  0  0  0  0  0
    7.8110   33.4330   22.1480 C   0  0  0  0  0  0  0  0  0  0  0  0
    8.9730   33.4530   23.1460 C   0  0  0  0  0  0  0  0  0  0  0  0
   10.0780   32.4180   22.9060 C   0  0  0  0  0  0  0  0  0  0  0  0
   10.4440   32.2440   21.4290 C   0  0  0  0  0  0  0  0  0  0  0  0
    9.5150   31.2430   20.7400 C   0  0  0  0  0  0  0  0  0  0  0  0
    9.3900   31.4580   19.2260 C   0  0  0  0  0  0  0  0  0  0  0  0
   10.5610   32.2080   18.5940 C   0  0  0  0  0  0  0  0  0  0  0  0
   10.2030   32.9910   17.3540 C   0  0  0  0  0  0  0  0  0  0  0  0
   10.8660   32.9800   16.3250 O   0  0  0  0  0  0  0  0  0  0  0  0
    9.0840   33.7400   17.5090 O   0  0  0  0  0  0  0  0  0  0  0  0
    8.3830   29.7023   17.1693 H   0  0  0  0  0  0  0  0  0  0  0  0
    7.3171   28.8267   16.0187 H   0  0  0  0  0  0  0  0  0  0  0  0
    7.3554   30.6226   16.0187 H   0  0  0  0  0  0  0  0  0  0  0  0
    5.8866   28.7282   17.7689 H   0  0  0  0  0  0  0  0  0  0  0  0
    6.7198   30.1190   18.6137 H   0  0  0  0  0  0  0  0  0  0  0  0
    5.4034   31.2092   16.3680 H   0  0  0  0  0  0  0  0  0  0  0  0
    4.2366   30.0725   17.1916 H   0  0  0  0  0  0  0  0  0  0  0  0
    5.4627   32.6276   18.1738 H   0  0  0  0  0  0  0  0  0  0  0  0
    3.7700   31.9580   18.3297 H   0  0  0  0  0  0  0  0  0  0  0  0
    4.1887   31.1576   20.3321 H   0  0  0  0  0  0  0  0  0  0  0  0
    5.6956   30.3097   19.6842 H   0  0  0  0  0  0  0  0  0  0  0  0
    7.0014   31.6286   20.8220 H   0  0  0  0  0  0  0  0  0  0  0  0
    6.2035   33.0884   20.0668 H   0  0  0  0  0  0  0  0  0  0  0  0
    4.5366   33.1392   21.8130 H   0  0  0  0  0  0  0  0  0  0  0  0
    5.2222   31.6342   22.5469 H   0  0  0  0  0  0  0  0  0  0  0  0
    6.0437   34.4165   22.8983 H   0  0  0  0  0  0  0  0  0  0  0  0
    6.5355   32.9316   23.8051 H   0  0  0  0  0  0  0  0  0  0  0  0
    7.9167   32.5435   21.5095 H   0  0  0  0  0  0  0  0  0  0  0  0
    7.8637   34.3699   21.5740 H   0  0  0  0  0  0  0  0  0  0  0  0
    9.4325   34.4517   23.1087 H   0  0  0  0  0  0  0  0  0  0  0  0
    8.5328   33.1985   24.1214 H   0  0  0  0  0  0  0  0  0  0  0  0
   10.9780   32.7370   23.4522 H   0  0  0  0  0  0  0  0  0  0  0  0
    9.6955   31.4493   23.2601 H   0  0  0  0  0  0  0  0  0  0  0  0
   10.3613   33.2169   20.9224 H   0  0  0  0  0  0  0  0  0  0  0  0
   11.4731   31.8602   21.3694 H   0  0  0  0  0  0  0  0  0  0  0  0
    9.9050   30.2296   20.9157 H   0  0  0  0  0  0  0  0  0  0  0  0
    8.5124   31.3874   21.1689 H   0  0  0  0  0  0  0  0  0  0  0  0
    9.3132   30.4721   18.7442 H   0  0  0  0  0  0  0  0  0  0  0  0
    8.4981   32.0830   19.0713 H   0  0  0  0  0  0  0  0  0  0  0  0
   10.9631   32.9095   19.3398 H   0  0  0  0  0  0  0  0  0  0  0  0
   11.2917   31.4462   18.2845 H   0  0  0  0  0  0  0  0  0  0  0  0
  1  2  1  0
  2  3  1  0
  3  4  1  0
  4  5  1  0
  5  6  1  0
  6  7  1  0
  7  8  1  0
  8  9  1  0
  9 10  1  0
 10 11  1  0
 11 12  1  0
 12 13  1  0
 13 14  1  0
 14 15  1  0
 15 16  1  0
 16 17  2  0
 16 18  1  0
  1 19  1  0
  1 20  1  0
  1 21  1  0
  2 22  1  0
  2 23  1  0
  3 24  1  0
  3 25  1  0
  4 26  1  0
  4 27  1  0
  5 28  1  0
  5 29  1  0
  6 30  1  0
  6 31  1  0
  7 32  1  0
  7 33  1  0
  8 34  1  0
  8 35  1  0
  9 36  1  0
  9 37  1  0
 10 38  1  0
 10 39  1  0
 11 40  1  0
 11 41  1  0
 12 42  1  0
 12 43  1  0
 13 44  1  0
 13 45  1  0
 14 46  1  0
 14 47  1  0
 15 48  1  0
 15 49  1  0
M  CHG  1  18  -1
M  END
>  <meeko>  (10) 
{"is_sidechain": [false], "free_energy": -5.362, "intermolecular_energy": -10.571, "internal_energy": -1.166}

$$$$
palmitate_Clobe_run01
     RDKit          3D

 49 48  0  0  0  0  0  0  0  0999 V2000
    5.2310   31.4730   19.2770 C   0  0  0  0  0  0  0  0  0  0  0  0
    5.4630   31.3910   17.7770 C   0  0  0  0  0  0  0  0  0  0  0  0
    5.6060   29.9590   17.2550 C   0  0  0  0  0  0  0  0  0  0  0  0
    7.0240   29.6260   16.7800 C   0  0  0  0  0  0  0  0  0  0  0  0
    8.0140   30.7850   16.9520 C   0  0  0  0  0  0  0  0  0  0  0  0
    8.9130   30.7220   18.1900 C   0  0  0  0  0  0  0  0  0  0  0  0
    9.1080   32.0770   18.8730 C   0  0  0  0  0  0  0  0  0  0  0  0
    8.9050   31.9700   20.3860 C   0  0  0  0  0  0  0  0  0  0  0  0
   10.1560   31.4140   21.0700 C   0  0  0  0  0  0  0  0  0  0  0  0
   10.3290   31.8920   22.5150 C   0  0  0  0  0  0  0  0  0  0  0  0
   11.7750   32.0960   22.9840 C   0  0  0  0  0  0  0  0  0  0  0  0
   11.8980   32.3770   24.4840 C   0  0  0  0  0  0  0  0  0  0  0  0
   10.5540   32.7890   25.0860 C   0  0  0  0  0  0  0  0  0  0  0  0
   10.6760   33.7950   26.2370 C   0  0  0  0  0  0  0  0  0  0  0  0
   12.0920   34.3200   26.4740 C   0  0  0  0  0  0  0  0  0  0  0  0
   12.6330   34.0500   27.8560 C   0  0  0  0  0  0  0  0  0  0  0  0
   12.9390   34.9280   28.6530 O   0  0  0  0  0  0  0  0  0  0  0  0
   12.7800   32.7280   28.1160 O   0  0  0  0  0  0  0  0  0  0  0  0
    6.1400   31.1517   19.8067 H   0  0  0  0  0  0  0  0  0  0  0  0
    4.9919   32.5101   19.5549 H   0  0  0  0  0  0  0  0  0  0  0  0
    4.3933   30.8165   19.5549 H   0  0  0  0  0  0  0  0  0  0  0  0
    4.6103   31.8632   17.2672 H   0  0  0  0  0  0  0  0  0  0  0  0
    6.4127   31.9057   17.5695 H   0  0  0  0  0  0  0  0  0  0  0  0
    5.3365   29.2640   18.0639 H   0  0  0  0  0  0  0  0  0  0  0  0
    4.9396   29.8612   16.3853 H   0  0  0  0  0  0  0  0  0  0  0  0
    7.3917   28.7652   17.3577 H   0  0  0  0  0  0  0  0  0  0  0  0
    6.9625   29.4097   15.7032 H   0  0  0  0  0  0  0  0  0  0  0  0
    8.6640   30.8068   16.0649 H   0  0  0  0  0  0  0  0  0  0  0  0
    7.3962   31.6861   17.0798 H   0  0  0  0  0  0  0  0  0  0  0  0
    8.4598   30.0292   18.9143 H   0  0  0  0  0  0  0  0  0  0  0  0
    9.9041   30.3843   17.8529 H   0  0  0  0  0  0  0  0  0  0  0  0
   10.1283   32.4360   18.6726 H   0  0  0  0  0  0  0  0  0  0  0  0
    8.3630   32.7794   18.4710 H   0  0  0  0  0  0  0  0  0  0  0  0
    8.6877   32.9693   20.7912 H   0  0  0  0  0  0  0  0  0  0  0  0
    8.0665   31.2847   20.5792 H   0  0  0  0  0  0  0  0  0  0  0  0
   10.0920   30.3159   21.0724 H   0  0  0  0  0  0  0  0  0  0  0  0
   11.0239   31.7815   20.5028 H   0  0  0  0  0  0  0  0  0  0  0  0
    9.8026   32.8524   22.6177 H   0  0  0  0  0  0  0  0  0  0  0  0
    9.9220   31.0878   23.1455 H   0  0  0  0  0  0  0  0  0  0  0  0
   12.3476   31.1858   22.7524 H   0  0  0  0  0  0  0  0  0  0  0  0
   12.1639   32.9797   22.4569 H   0  0  0  0  0  0  0  0  0  0  0  0
   12.2535   31.4676   24.9906 H   0  0  0  0  0  0  0  0  0  0  0  0
   12.6087   33.2048   24.6242 H   0  0  0  0  0  0  0  0  0  0  0  0
    9.9423   33.2423   24.2921 H   0  0  0  0  0  0  0  0  0  0  0  0
   10.0958   31.8794   25.5015 H   0  0  0  0  0  0  0  0  0  0  0  0
   10.0246   34.6528   26.0138 H   0  0  0  0  0  0  0  0  0  0  0  0
   10.3842   33.2593   27.1523 H   0  0  0  0  0  0  0  0  0  0  0  0
   12.7623   33.8442   25.7430 H   0  0  0  0  0  0  0  0  0  0  0  0
   12.0443   35.4134   26.3634 H   0  0  0  0  0  0  0  0  0  0  0  0
  1  2  1  0
  2  3  1  0
  3  4  1  0
  4  5  1  0
  5  6  1  0
  6  7  1  0
  7  8  1  0
  8  9  1  0
  9 10  1  0
 10 11  1  0
 11 12  1  0
 12 13  1  0
 13 14  1  0
 14 15  1  0
 15 16  1  0
 16 17  2  0
 16 18  1  0
  1 19  1  0
  1 20  1  0
  1 21  1  0
  2 22  1  0
  2 23  1  0
  3 24  1  0
  3 25  1  0
  4 26  1  0
  4 27  1  0
  5 28  1  0
  5 29  1  0
  6 30  1  0
  6 31  1  0
  7 32  1  0
  7 33  1  0
  8 34  1  0
  8 35  1  0
  9 36  1  0
  9 37  1  0
 10 38  1  0
 10 39  1  0
 11 40  1  0
 11 41  1  0
 12 42  1  0
 12 43  1  0
 13 44  1  0
 13 45  1  0
 14 46  1  0
 14 47  1  0
 15 48  1  0
 15 49  1  0
M  CHG  1  18  -1
M  END
>  <meeko>  (11) 
{"is_sidechain": [false], "free_energy": -5.36, "intermolecular_energy": -10.76, "internal_energy": -0.973}

$$$$
palmitate_Clobe_run01
     RDKit          3D

 49 48  0  0  0  0  0  0  0  0999 V2000
   11.1920   32.1820   24.2160 C   0  0  0  0  0  0  0  0  0  0  0  0
   12.2140   32.0980   23.0930 C   0  0  0  0  0  0  0  0  0  0  0  0
   11.7030   31.3600   21.8520 C   0  0  0  0  0  0  0  0  0  0  0  0
   10.2040   31.5560   21.6060 C   0  0  0  0  0  0  0  0  0  0  0  0
    9.8330   31.6330   20.1200 C   0  0  0  0  0  0  0  0  0  0  0  0
   11.0030   31.7840   19.1430 C   0  0  0  0  0  0  0  0  0  0  0  0
   10.5640   31.9990   17.6930 C   0  0  0  0  0  0  0  0  0  0  0  0
    9.0590   32.2670   17.6040 C   0  0  0  0  0  0  0  0  0  0  0  0
    8.4610   31.6300   16.3470 C   0  0  0  0  0  0  0  0  0  0  0  0
    8.2720   30.1140   16.4570 C   0  0  0  0  0  0  0  0  0  0  0  0
    7.6540   29.6100   17.7660 C   0  0  0  0  0  0  0  0  0  0  0  0
    6.1850   30.0040   17.9410 C   0  0  0  0  0  0  0  0  0  0  0  0
    6.0100   31.0050   19.0840 C   0  0  0  0  0  0  0  0  0  0  0  0
    4.9140   32.0480   18.8290 C   0  0  0  0  0  0  0  0  0  0  0  0
    4.5700   32.2590   17.3550 C   0  0  0  0  0  0  0  0  0  0  0  0
    5.1450   33.5190   16.7560 C   0  0  0  0  0  0  0  0  0  0  0  0
    6.1760   34.0510   17.1440 O   0  0  0  0  0  0  0  0  0  0  0  0
    4.3780   34.0250   15.7590 O   0  0  0  0  0  0  0  0  0  0  0  0
   11.7089   32.1395   25.1861 H   0  0  0  0  0  0  0  0  0  0  0  0
   10.6375   33.1287   24.1371 H   0  0  0  0  0  0  0  0  0  0  0  0
   10.4904   31.3385   24.1371 H   0  0  0  0  0  0  0  0  0  0  0  0
   12.4925   33.1208   22.7992 H   0  0  0  0  0  0  0  0  0  0  0  0
   13.0703   31.5254   23.4787 H   0  0  0  0  0  0  0  0  0  0  0  0
   12.2524   31.7308   20.9742 H   0  0  0  0  0  0  0  0  0  0  0  0
   11.8682   30.2856   22.0204 H   0  0  0  0  0  0  0  0  0  0  0  0
    9.6637   30.7103   22.0564 H   0  0  0  0  0  0  0  0  0  0  0  0
    9.9248   32.5185   22.0595 H   0  0  0  0  0  0  0  0  0  0  0  0
    9.2938   30.7103   19.8594 H   0  0  0  0  0  0  0  0  0  0  0  0
    9.2350   32.5498   20.0107 H   0  0  0  0  0  0  0  0  0  0  0  0
   11.6080   32.6480   19.4553 H   0  0  0  0  0  0  0  0  0  0  0  0
   11.5723   30.8433   19.1724 H   0  0  0  0  0  0  0  0  0  0  0  0
   11.1071   32.8608   17.2777 H   0  0  0  0  0  0  0  0  0  0  0  0
   10.7897   31.0864   17.1218 H   0  0  0  0  0  0  0  0  0  0  0  0
    8.5653   31.8438   18.4912 H   0  0  0  0  0  0  0  0  0  0  0  0
    8.8992   33.3542   17.5555 H   0  0  0  0  0  0  0  0  0  0  0  0
    7.4798   32.0897   16.1576 H   0  0  0  0  0  0  0  0  0  0  0  0
    9.1721   31.8072   15.5267 H   0  0  0  0  0  0  0  0  0  0  0  0
    7.6192   29.7949   15.6312 H   0  0  0  0  0  0  0  0  0  0  0  0
    9.2839   29.6843   16.4206 H   0  0  0  0  0  0  0  0  0  0  0  0
    7.7243   28.5124   17.7840 H   0  0  0  0  0  0  0  0  0  0  0  0
    8.2141   30.0782   18.5888 H   0  0  0  0  0  0  0  0  0  0  0  0
    5.8225   30.4592   17.0075 H   0  0  0  0  0  0  0  0  0  0  0  0
    5.6091   29.0982   18.1818 H   0  0  0  0  0  0  0  0  0  0  0  0
    5.7533   30.4479   19.9971 H   0  0  0  0  0  0  0  0  0  0  0  0
    6.9590   31.5530   19.1791 H   0  0  0  0  0  0  0  0  0  0  0  0
    4.0022   31.7229   19.3514 H   0  0  0  0  0  0  0  0  0  0  0  0
    5.3033   33.0077   19.1997 H   0  0  0  0  0  0  0  0  0  0  0  0
    4.9549   31.4003   16.7853 H   0  0  0  0  0  0  0  0  0  0  0  0
    3.4757   32.3548   17.2981 H   0  0  0  0  0  0  0  0  0  0  0  0
  1  2  1  0
  2  3  1  0
  3  4  1  0
  4  5  1  0
  5  6  1  0
  6  7  1  0
  7  8  1  0
  8  9  1  0
  9 10  1  0
 10 11  1  0
 11 12  1  0
 12 13  1  0
 13 14  1  0
 14 15  1  0
 15 16  1  0
 16 17  2  0
 16 18  1  0
  1 19  1  0
  1 20  1  0
  1 21  1  0
  2 22  1  0
  2 23  1  0
  3 24  1  0
  3 25  1  0
  4 26  1  0
  4 27  1  0
  5 28  1  0
  5 29  1  0
  6 30  1  0
  6 31  1  0
  7 32  1  0
  7 33  1  0
  8 34  1  0
  8 35  1  0
  9 36  1  0
  9 37  1  0
 10 38  1  0
 10 39  1  0
 11 40  1  0
 11 41  1  0
 12 42  1  0
 12 43  1  0
 13 44  1  0
 13 45  1  0
 14 46  1  0
 14 47  1  0
 15 48  1  0
 15 49  1  0
M  CHG  1  18  -1
M  END
>  <meeko>  (12) 
{"is_sidechain": [false], "free_energy": -5.348, "intermolecular_energy": -10.103, "internal_energy": -1.609}

$$$$
palmitate_Clobe_run01
     RDKit          3D

 49 48  0  0  0  0  0  0  0  0999 V2000
   10.2800   33.1080   24.6790 C   0  0  0  0  0  0  0  0  0  0  0  0
   10.9250   31.8640   24.0900 C   0  0  0  0  0  0  0  0  0  0  0  0
   11.9590   32.1650   23.0020 C   0  0  0  0  0  0  0  0  0  0  0  0
   11.6820   31.4360   21.6840 C   0  0  0  0  0  0  0  0  0  0  0  0
   10.1930   31.3730   21.3220 C   0  0  0  0  0  0  0  0  0  0  0  0
    9.8310   31.7910   19.8940 C   0  0  0  0  0  0  0  0  0  0  0  0
   11.0340   31.8450   18.9500 C   0  0  0  0  0  0  0  0  0  0  0  0
   10.8380   32.9050   17.8630 C   0  0  0  0  0  0  0  0  0  0  0  0
    9.3790   32.9570   17.4030 C   0  0  0  0  0  0  0  0  0  0  0  0
    9.1770   32.5210   15.9490 C   0  0  0  0  0  0  0  0  0  0  0  0
    8.5640   31.1300   15.7470 C   0  0  0  0  0  0  0  0  0  0  0  0
    8.1150   30.4630   17.0500 C   0  0  0  0  0  0  0  0  0  0  0  0
    6.8870   29.5790   16.8290 C   0  0  0  0  0  0  0  0  0  0  0  0
    5.5610   30.2670   17.1740 C   0  0  0  0  0  0  0  0  0  0  0  0
    5.7060   31.5490   17.9940 C   0  0  0  0  0  0  0  0  0  0  0  0
    5.0960   32.7710   17.3530 C   0  0  0  0  0  0  0  0  0  0  0  0
    3.8980   32.9050   17.1410 O   0  0  0  0  0  0  0  0  0  0  0  0
    6.0200   33.6990   17.0030 O   0  0  0  0  0  0  0  0  0  0  0  0
   10.3094   33.0513   25.7771 H   0  0  0  0  0  0  0  0  0  0  0  0
   10.8293   33.9999   24.3430 H   0  0  0  0  0  0  0  0  0  0  0  0
    9.2346   33.1731   24.3430 H   0  0  0  0  0  0  0  0  0  0  0  0
   11.4243   31.3141   24.9014 H   0  0  0  0  0  0  0  0  0  0  0  0
   10.1226   31.2777   23.6184 H   0  0  0  0  0  0  0  0  0  0  0  0
   11.9574   33.2479   22.8089 H   0  0  0  0  0  0  0  0  0  0  0  0
   12.9328   31.8110   23.3714 H   0  0  0  0  0  0  0  0  0  0  0  0
   12.2148   31.9606   20.8771 H   0  0  0  0  0  0  0  0  0  0  0  0
   12.0294   30.3997   21.8078 H   0  0  0  0  0  0  0  0  0  0  0  0
    9.8555   30.3358   21.4648 H   0  0  0  0  0  0  0  0  0  0  0  0
    9.6969   32.1024   21.9792 H   0  0  0  0  0  0  0  0  0  0  0  0
    9.1059   31.0677   19.4928 H   0  0  0  0  0  0  0  0  0  0  0  0
    9.4178   32.8089   19.9499 H   0  0  0  0  0  0  0  0  0  0  0  0
   11.9354   32.0895   19.5312 H   0  0  0  0  0  0  0  0  0  0  0  0
   11.1398   30.8637   18.4644 H   0  0  0  0  0  0  0  0  0  0  0  0
   11.1238   33.8885   18.2642 H   0  0  0  0  0  0  0  0  0  0  0  0
   11.4679   32.6424   17.0003 H   0  0  0  0  0  0  0  0  0  0  0  0
    8.7868   32.2934   18.0502 H   0  0  0  0  0  0  0  0  0  0  0  0
    9.0570   34.0065   17.4720 H   0  0  0  0  0  0  0  0  0  0  0  0
    8.5150   33.2547   15.4658 H   0  0  0  0  0  0  0  0  0  0  0  0
   10.1845   32.4693   15.5105 H   0  0  0  0  0  0  0  0  0  0  0  0
    7.6894   31.2279   15.0871 H   0  0  0  0  0  0  0  0  0  0  0  0
    9.3474   30.4924   15.3115 H   0  0  0  0  0  0  0  0  0  0  0  0
    8.9374   29.8433   17.4368 H   0  0  0  0  0  0  0  0  0  0  0  0
    7.8493   31.2516   17.7694 H   0  0  0  0  0  0  0  0  0  0  0  0
    6.8589   29.2823   15.7701 H   0  0  0  0  0  0  0  0  0  0  0  0
    6.9865   28.7166   17.5045 H   0  0  0  0  0  0  0  0  0  0  0  0
    5.0488   30.5171   16.2332 H   0  0  0  0  0  0  0  0  0  0  0  0
    4.9946   29.5595   17.7974 H   0  0  0  0  0  0  0  0  0  0  0  0
    5.2188   31.3917   18.9676 H   0  0  0  0  0  0  0  0  0  0  0  0
    6.7848   31.7456   18.0812 H   0  0  0  0  0  0  0  0  0  0  0  0
  1  2  1  0
  2  3  1  0
  3  4  1  0
  4  5  1  0
  5  6  1  0
  6  7  1  0
  7  8  1  0
  8  9  1  0
  9 10  1  0
 10 11  1  0
 11 12  1  0
 12 13  1  0
 13 14  1  0
 14 15  1  0
 15 16  1  0
 16 17  2  0
 16 18  1  0
  1 19  1  0
  1 20  1  0
  1 21  1  0
  2 22  1  0
  2 23  1  0
  3 24  1  0
  3 25  1  0
  4 26  1  0
  4 27  1  0
  5 28  1  0
  5 29  1  0
  6 30  1  0
  6 31  1  0
  7 32  1  0
  7 33  1  0
  8 34  1  0
  8 35  1  0
  9 36  1  0
  9 37  1  0
 10 38  1  0
 10 39  1  0
 11 40  1  0
 11 41  1  0
 12 42  1  0
 12 43  1  0
 13 44  1  0
 13 45  1  0
 14 46  1  0
 14 47  1  0
 15 48  1  0
 15 49  1  0
M  CHG  1  18  -1
M  END
>  <meeko>  (13) 
{"is_sidechain": [false], "free_energy": -5.321, "intermolecular_energy": -10.262, "internal_energy": -1.399}

$$$$
palmitate_Clobe_run01
     RDKit          3D

 49 48  0  0  0  0  0  0  0  0999 V2000
   14.2990   33.0580   29.8760 C   0  0  0  0  0  0  0  0  0  0  0  0
   13.8470   34.4160   30.3900 C   0  0  0  0  0  0  0  0  0  0  0  0
   12.3870   34.4420   30.8520 C   0  0  0  0  0  0  0  0  0  0  0  0
   11.4080   34.8440   29.7450 C   0  0  0  0  0  0  0  0  0  0  0  0
   10.5150   33.6910   29.2700 C   0  0  0  0  0  0  0  0  0  0  0  0
   11.0060   32.9260   28.0370 C   0  0  0  0  0  0  0  0  0  0  0  0
   11.7170   33.8110   27.0120 C   0  0  0  0  0  0  0  0  0  0  0  0
   11.8640   33.0930   25.6680 C   0  0  0  0  0  0  0  0  0  0  0  0
   10.4960   32.8070   25.0450 C   0  0  0  0  0  0  0  0  0  0  0  0
   10.5690   32.3600   23.5820 C   0  0  0  0  0  0  0  0  0  0  0  0
   11.9540   31.9350   23.0790 C   0  0  0  0  0  0  0  0  0  0  0  0
   11.9470   31.4020   21.6440 C   0  0  0  0  0  0  0  0  0  0  0  0
   10.6010   31.6500   20.9630 C   0  0  0  0  0  0  0  0  0  0  0  0
   10.7040   31.8580   19.4470 C   0  0  0  0  0  0  0  0  0  0  0  0
    9.3600   31.9760   18.7300 C   0  0  0  0  0  0  0  0  0  0  0  0
    8.4570   30.7790   18.8980 C   0  0  0  0  0  0  0  0  0  0  0  0
    7.6720   30.6410   19.8280 O   0  0  0  0  0  0  0  0  0  0  0  0
    8.6280   29.8490   17.9270 O   0  0  0  0  0  0  0  0  0  0  0  0
   14.5187   32.3980   30.7281 H   0  0  0  0  0  0  0  0  0  0  0  0
   13.5005   32.6132   29.2640 H   0  0  0  0  0  0  0  0  0  0  0  0
   15.2048   33.1805   29.2640 H   0  0  0  0  0  0  0  0  0  0  0  0
   14.4859   34.6961   31.2405 H   0  0  0  0  0  0  0  0  0  0  0  0
   13.9326   35.1230   29.5516 H   0  0  0  0  0  0  0  0  0  0  0  0
   12.1161   33.4377   31.2098 H   0  0  0  0  0  0  0  0  0  0  0  0
   12.3101   35.1997   31.6457 H   0  0  0  0  0  0  0  0  0  0  0  0
   10.7632   35.6496   30.1260 H   0  0  0  0  0  0  0  0  0  0  0  0
   12.0095   35.1644   28.8816 H   0  0  0  0  0  0  0  0  0  0  0  0
   10.4242   32.9724   30.0979 H   0  0  0  0  0  0  0  0  0  0  0  0
    9.5638   34.1559   28.9715 H   0  0  0  0  0  0  0  0  0  0  0  0
   11.7065   32.1452   28.3680 H   0  0  0  0  0  0  0  0  0  0  0  0
   10.1176   32.5073   27.5415 H   0  0  0  0  0  0  0  0  0  0  0  0
   11.1321   34.7310   26.8652 H   0  0  0  0  0  0  0  0  0  0  0  0
   12.7217   34.0467   27.3927 H   0  0  0  0  0  0  0  0  0  0  0  0
   12.4453   33.7278   24.9830 H   0  0  0  0  0  0  0  0  0  0  0  0
   12.3784   32.1355   25.8373 H   0  0  0  0  0  0  0  0  0  0  0  0
   10.0082   32.0116   25.6276 H   0  0  0  0  0  0  0  0  0  0  0  0
    9.9290   33.7494   25.0661 H   0  0  0  0  0  0  0  0  0  0  0  0
    9.8881   31.5052   23.4565 H   0  0  0  0  0  0  0  0  0  0  0  0
   10.2949   33.2437   22.9871 H   0  0  0  0  0  0  0  0  0  0  0  0
   12.6228   32.8072   23.1229 H   0  0  0  0  0  0  0  0  0  0  0  0
   12.2949   31.1139   23.7268 H   0  0  0  0  0  0  0  0  0  0  0  0
   12.7370   31.9086   21.0703 H   0  0  0  0  0  0  0  0  0  0  0  0
   12.1233   30.3167   21.6771 H   0  0  0  0  0  0  0  0  0  0  0  0
    9.9520   30.7819   21.1508 H   0  0  0  0  0  0  0  0  0  0  0  0
   10.1935   32.5795   21.3872 H   0  0  0  0  0  0  0  0  0  0  0  0
   11.2726   32.7819   19.2650 H   0  0  0  0  0  0  0  0  0  0  0  0
   11.1969   30.9621   19.0415 H   0  0  0  0  0  0  0  0  0  0  0  0
    8.8365   32.8598   19.1235 H   0  0  0  0  0  0  0  0  0  0  0  0
    9.5829   32.0528   17.6556 H   0  0  0  0  0  0  0  0  0  0  0  0
  1  2  1  0
  2  3  1  0
  3  4  1  0
  4  5  1  0
  5  6  1  0
  6  7  1  0
  7  8  1  0
  8  9  1  0
  9 10  1  0
 10 11  1  0
 11 12  1  0
 12 13  1  0
 13 14  1  0
 14 15  1  0
 15 16  1  0
 16 17  2  0
 16 18  1  0
  1 19  1  0
  1 20  1  0
  1 21  1  0
  2 22  1  0
  2 23  1  0
  3 24  1  0
  3 25  1  0
  4 26  1  0
  4 27  1  0
  5 28  1  0
  5 29  1  0
  6 30  1  0
  6 31  1  0
  7 32  1  0
  7 33  1  0
  8 34  1  0
  8 35  1  0
  9 36  1  0
  9 37  1  0
 10 38  1  0
 10 39  1  0
 11 40  1  0
 11 41  1  0
 12 42  1  0
 12 43  1  0
 13 44  1  0
 13 45  1  0
 14 46  1  0
 14 47  1  0
 15 48  1  0
 15 49  1  0
M  CHG  1  18  -1
M  END
>  <meeko>  (14) 
{"is_sidechain": [false], "free_energy": -5.304, "intermolecular_energy": -10.714, "internal_energy": -0.917}

$$$$
palmitate_Clobe_run01
     RDKit          3D

 49 48  0  0  0  0  0  0  0  0999 V2000
    9.3350   33.3120   17.1250 C   0  0  0  0  0  0  0  0  0  0  0  0
   10.6940   33.0470   17.7540 C   0  0  0  0  0  0  0  0  0  0  0  0
   10.8880   31.5970   18.2080 C   0  0  0  0  0  0  0  0  0  0  0  0
   11.1730   31.4650   19.7070 C   0  0  0  0  0  0  0  0  0  0  0  0
    9.9790   31.8410   20.5920 C   0  0  0  0  0  0  0  0  0  0  0  0
   10.2430   31.8650   22.1010 C   0  0  0  0  0  0  0  0  0  0  0  0
   11.7290   31.9050   22.4600 C   0  0  0  0  0  0  0  0  0  0  0  0
   11.9310   32.1940   23.9500 C   0  0  0  0  0  0  0  0  0  0  0  0
   10.6030   32.5350   24.6280 C   0  0  0  0  0  0  0  0  0  0  0  0
   10.7650   33.1630   26.0160 C   0  0  0  0  0  0  0  0  0  0  0  0
   12.1560   33.7220   26.3400 C   0  0  0  0  0  0  0  0  0  0  0  0
   12.1250   35.1260   26.9490 C   0  0  0  0  0  0  0  0  0  0  0  0
   11.1600   35.1990   28.1330 C   0  0  0  0  0  0  0  0  0  0  0  0
   11.8360   35.5730   29.4580 C   0  0  0  0  0  0  0  0  0  0  0  0
   12.1530   34.3850   30.3660 C   0  0  0  0  0  0  0  0  0  0  0  0
   13.6090   33.9890   30.3880 C   0  0  0  0  0  0  0  0  0  0  0  0
   14.4480   34.5100   31.1110 O   0  0  0  0  0  0  0  0  0  0  0  0
   13.9020   33.0120   29.4950 O   0  0  0  0  0  0  0  0  0  0  0  0
    8.5863   33.4580   17.9176 H   0  0  0  0  0  0  0  0  0  0  0  0
    9.3897   34.2164   16.5012 H   0  0  0  0  0  0  0  0  0  0  0  0
    9.0459   32.4533   16.5012 H   0  0  0  0  0  0  0  0  0  0  0  0
   11.4721   33.2868   17.0144 H   0  0  0  0  0  0  0  0  0  0  0  0
   10.7618   33.6779   18.6525 H   0  0  0  0  0  0  0  0  0  0  0  0
    9.9727   31.0328   17.9755 H   0  0  0  0  0  0  0  0  0  0  0  0
   11.7648   31.2026   17.6735 H   0  0  0  0  0  0  0  0  0  0  0  0
   11.4481   30.4212   19.9185 H   0  0  0  0  0  0  0  0  0  0  0  0
   11.9857   32.1671   19.9448 H   0  0  0  0  0  0  0  0  0  0  0  0
    9.6415   32.8444   20.2933 H   0  0  0  0  0  0  0  0  0  0  0  0
    9.2318   31.0493   20.4341 H   0  0  0  0  0  0  0  0  0  0  0  0
    9.7583   32.7567   22.5251 H   0  0  0  0  0  0  0  0  0  0  0  0
    9.8351   30.9313   22.5156 H   0  0  0  0  0  0  0  0  0  0  0  0
   12.1828   30.9326   22.2184 H   0  0  0  0  0  0  0  0  0  0  0  0
   12.2056   32.7099   21.8813 H   0  0  0  0  0  0  0  0  0  0  0  0
   12.3637   31.3056   24.4332 H   0  0  0  0  0  0  0  0  0  0  0  0
   12.6071   33.0558   24.0510 H   0  0  0  0  0  0  0  0  0  0  0  0
   10.0577   33.2437   23.9874 H   0  0  0  0  0  0  0  0  0  0  0  0
   10.0587   31.5889   24.7642 H   0  0  0  0  0  0  0  0  0  0  0  0
   10.0424   33.9882   26.0990 H   0  0  0  0  0  0  0  0  0  0  0  0
   10.5978   32.3463   26.7337 H   0  0  0  0  0  0  0  0  0  0  0  0
   12.6458   33.0438   27.0542 H   0  0  0  0  0  0  0  0  0  0  0  0
   12.7042   33.7946   25.3891 H   0  0  0  0  0  0  0  0  0  0  0  0
   13.1358   35.3888   27.2943 H   0  0  0  0  0  0  0  0  0  0  0  0
   11.7807   35.8306   26.1776 H   0  0  0  0  0  0  0  0  0  0  0  0
   10.3926   35.9547   27.9093 H   0  0  0  0  0  0  0  0  0  0  0  0
   10.7338   34.1932   28.2625 H   0  0  0  0  0  0  0  0  0  0  0  0
   12.7789   36.0910   29.2283 H   0  0  0  0  0  0  0  0  0  0  0  0
   11.1210   36.2037   30.0066 H   0  0  0  0  0  0  0  0  0  0  0  0
   11.8517   34.6455   31.3913 H   0  0  0  0  0  0  0  0  0  0  0  0
   11.5994   33.5245   29.9622 H   0  0  0  0  0  0  0  0  0  0  0  0
  1  2  1  0
  2  3  1  0
  3  4  1  0
  4  5  1  0
  5  6  1  0
  6  7  1  0
  7  8  1  0
  8  9  1  0
  9 10  1  0
 10 11  1  0
 11 12  1  0
 12 13  1  0
 13 14  1  0
 14 15  1  0
 15 16  1  0
 16 17  2  0
 16 18  1  0
  1 19  1  0
  1 20  1  0
  1 21  1  0
  2 22  1  0
  2 23  1  0
  3 24  1  0
  3 25  1  0
  4 26  1  0
  4 27  1  0
  5 28  1  0
  5 29  1  0
  6 30  1  0
  6 31  1  0
  7 32  1  0
  7 33  1  0
  8 34  1  0
  8 35  1  0
  9 36  1  0
  9 37  1  0
 10 38  1  0
 10 39  1  0
 11 40  1  0
 11 41  1  0
 12 42  1  0
 12 43  1  0
 13 44  1  0
 13 45  1  0
 14 46  1  0
 14 47  1  0
 15 48  1  0
 15 49  1  0
M  CHG  1  18  -1
M  END
>  <meeko>  (15) 
{"is_sidechain": [false], "free_energy": -5.284, "intermolecular_energy": -10.665, "internal_energy": -0.93}

$$$$
palmitate_Clobe_run01
     RDKit          3D

 49 48  0  0  0  0  0  0  0  0999 V2000
    6.8830   29.6090   17.1110 C   0  0  0  0  0  0  0  0  0  0  0  0
    8.3960   29.6650   16.9780 C   0  0  0  0  0  0  0  0  0  0  0  0
    9.0470   30.7580   17.8310 C   0  0  0  0  0  0  0  0  0  0  0  0
    8.0440   31.5300   18.6940 C   0  0  0  0  0  0  0  0  0  0  0  0
    8.5490   31.8130   20.1140 C   0  0  0  0  0  0  0  0  0  0  0  0
   10.0660   31.7430   20.3130 C   0  0  0  0  0  0  0  0  0  0  0  0
   10.4780   31.1550   21.6640 C   0  0  0  0  0  0  0  0  0  0  0  0
   10.6690   32.2550   22.7120 C   0  0  0  0  0  0  0  0  0  0  0  0
   12.0720   32.1950   23.3210 C   0  0  0  0  0  0  0  0  0  0  0  0
   12.1190   32.6050   24.7960 C   0  0  0  0  0  0  0  0  0  0  0  0
   10.7760   32.9880   25.4280 C   0  0  0  0  0  0  0  0  0  0  0  0
   10.8850   34.1130   26.4610 C   0  0  0  0  0  0  0  0  0  0  0  0
   12.3410   34.3760   26.8480 C   0  0  0  0  0  0  0  0  0  0  0  0
   12.7140   33.8510   28.2400 C   0  0  0  0  0  0  0  0  0  0  0  0
   12.9250   34.9390   29.2920 C   0  0  0  0  0  0  0  0  0  0  0  0
   13.4140   34.4310   30.6260 C   0  0  0  0  0  0  0  0  0  0  0  0
   14.5960   34.3270   30.9250 O   0  0  0  0  0  0  0  0  0  0  0  0
   12.4040   34.0650   31.4520 O   0  0  0  0  0  0  0  0  0  0  0  0
    6.6087   29.5988   18.1762 H   0  0  0  0  0  0  0  0  0  0  0  0
    6.4394   30.4913   16.6265 H   0  0  0  0  0  0  0  0  0  0  0  0
    6.5059   28.6963   16.6265 H   0  0  0  0  0  0  0  0  0  0  0  0
    8.8082   28.6925   17.2852 H   0  0  0  0  0  0  0  0  0  0  0  0
    8.6187   29.9009   15.9269 H   0  0  0  0  0  0  0  0  0  0  0  0
    9.7891   30.2885   18.4935 H   0  0  0  0  0  0  0  0  0  0  0  0
    9.5067   31.4802   17.1403 H   0  0  0  0  0  0  0  0  0  0  0  0
    7.8292   32.4906   18.2030 H   0  0  0  0  0  0  0  0  0  0  0  0
    7.1472   30.9002   18.7892 H   0  0  0  0  0  0  0  0  0  0  0  0
    8.2192   32.8246   20.3932 H   0  0  0  0  0  0  0  0  0  0  0  0
    8.1300   31.0136   20.7428 H   0  0  0  0  0  0  0  0  0  0  0  0
   10.4931   31.1167   19.5159 H   0  0  0  0  0  0  0  0  0  0  0  0
   10.4445   32.7753   20.2806 H   0  0  0  0  0  0  0  0  0  0  0  0
    9.6947   30.4637   22.0082 H   0  0  0  0  0  0  0  0  0  0  0  0
   11.4339   30.6259   21.5365 H   0  0  0  0  0  0  0  0  0  0  0  0
   10.5258   33.2355   22.2345 H   0  0  0  0  0  0  0  0  0  0  0  0
    9.9319   32.1059   23.5148 H   0  0  0  0  0  0  0  0  0  0  0  0
   12.4445   31.1636   23.2349 H   0  0  0  0  0  0  0  0  0  0  0  0
   12.6948   32.9128   22.7670 H   0  0  0  0  0  0  0  0  0  0  0  0
   12.5317   31.7605   25.3675 H   0  0  0  0  0  0  0  0  0  0  0  0
   12.7352   33.5155   24.8322 H   0  0  0  0  0  0  0  0  0  0  0  0
   10.0955   33.3148   24.6280 H   0  0  0  0  0  0  0  0  0  0  0  0
   10.4023   32.0988   25.9567 H   0  0  0  0  0  0  0  0  0  0  0  0
   10.4561   35.0323   26.0356 H   0  0  0  0  0  0  0  0  0  0  0  0
   10.3364   33.8079   27.3643 H   0  0  0  0  0  0  0  0  0  0  0  0
   12.9909   33.8874   26.1071 H   0  0  0  0  0  0  0  0  0  0  0  0
   12.4755   35.4675   26.8697 H   0  0  0  0  0  0  0  0  0  0  0  0
   11.9053   33.1906   28.5862 H   0  0  0  0  0  0  0  0  0  0  0  0
   13.6770   33.3308   28.1305 H   0  0  0  0  0  0  0  0  0  0  0  0
   13.6656   35.6537   28.9038 H   0  0  0  0  0  0  0  0  0  0  0  0
   11.9408   35.3960   29.4722 H   0  0  0  0  0  0  0  0  0  0  0  0
  1  2  1  0
  2  3  1  0
  3  4  1  0
  4  5  1  0
  5  6  1  0
  6  7  1  0
  7  8  1  0
  8  9  1  0
  9 10  1  0
 10 11  1  0
 11 12  1  0
 12 13  1  0
 13 14  1  0
 14 15  1  0
 15 16  1  0
 16 17  2  0
 16 18  1  0
  1 19  1  0
  1 20  1  0
  1 21  1  0
  2 22  1  0
  2 23  1  0
  3 24  1  0
  3 25  1  0
  4 26  1  0
  4 27  1  0
  5 28  1  0
  5 29  1  0
  6 30  1  0
  6 31  1  0
  7 32  1  0
  7 33  1  0
  8 34  1  0
  8 35  1  0
  9 36  1  0
  9 37  1  0
 10 38  1  0
 10 39  1  0
 11 40  1  0
 11 41  1  0
 12 42  1  0
 12 43  1  0
 13 44  1  0
 13 45  1  0
 14 46  1  0
 14 47  1  0
 15 48  1  0
 15 49  1  0
M  CHG  1  18  -1
M  END
>  <meeko>  (16) 
{"is_sidechain": [false], "free_energy": -5.274, "intermolecular_energy": -10.91, "internal_energy": -0.666}

$$$$
palmitate_Clobe_run01
     RDKit          3D

 49 48  0  0  0  0  0  0  0  0999 V2000
    7.1130   29.7960   16.8530 C   0  0  0  0  0  0  0  0  0  0  0  0
    8.5500   29.6550   17.3270 C   0  0  0  0  0  0  0  0  0  0  0  0
    9.0360   30.8370   18.1710 C   0  0  0  0  0  0  0  0  0  0  0  0
    7.9630   31.3890   19.1140 C   0  0  0  0  0  0  0  0  0  0  0  0
    8.5220   31.8870   20.4520 C   0  0  0  0  0  0  0  0  0  0  0  0
   10.0380   31.7610   20.6360 C   0  0  0  0  0  0  0  0  0  0  0  0
   10.4500   31.3670   22.0550 C   0  0  0  0  0  0  0  0  0  0  0  0
   11.8860   31.8030   22.3560 C   0  0  0  0  0  0  0  0  0  0  0  0
   12.0400   32.2130   23.8230 C   0  0  0  0  0  0  0  0  0  0  0  0
   10.7070   32.3860   24.5560 C   0  0  0  0  0  0  0  0  0  0  0  0
   10.7180   33.3500   25.7480 C   0  0  0  0  0  0  0  0  0  0  0  0
   10.3800   32.6780   27.0810 C   0  0  0  0  0  0  0  0  0  0  0  0
   10.9610   33.4580   28.2610 C   0  0  0  0  0  0  0  0  0  0  0  0
   12.4910   33.3940   28.3510 C   0  0  0  0  0  0  0  0  0  0  0  0
   13.1300   34.5450   29.1270 C   0  0  0  0  0  0  0  0  0  0  0  0
   13.3220   34.2730   30.5990 C   0  0  0  0  0  0  0  0  0  0  0  0
   12.4010   34.1180   31.3900 O   0  0  0  0  0  0  0  0  0  0  0  0
   14.6270   34.2500   30.9650 O   0  0  0  0  0  0  0  0  0  0  0  0
    6.4444   29.8616   17.7240 H   0  0  0  0  0  0  0  0  0  0  0  0
    7.0150   30.7081   16.2460 H   0  0  0  0  0  0  0  0  0  0  0  0
    6.8395   28.9204   16.2460 H   0  0  0  0  0  0  0  0  0  0  0  0
    8.6283   28.7399   17.9324 H   0  0  0  0  0  0  0  0  0  0  0  0
    9.1838   29.6178   16.4287 H   0  0  0  0  0  0  0  0  0  0  0  0
    9.8942   30.5060   18.7742 H   0  0  0  0  0  0  0  0  0  0  0  0
    9.3058   31.6453   17.4754 H   0  0  0  0  0  0  0  0  0  0  0  0
    7.4581   32.2284   18.6135 H   0  0  0  0  0  0  0  0  0  0  0  0
    7.2737   30.5619   19.3392 H   0  0  0  0  0  0  0  0  0  0  0  0
    8.2582   32.9502   20.5520 H   0  0  0  0  0  0  0  0  0  0  0  0
    8.0754   31.2379   21.2196 H   0  0  0  0  0  0  0  0  0  0  0  0
   10.4107   30.9950   19.9400 H   0  0  0  0  0  0  0  0  0  0  0  0
   10.4714   32.7522   20.4369 H   0  0  0  0  0  0  0  0  0  0  0  0
    9.7706   31.8497   22.7729 H   0  0  0  0  0  0  0  0  0  0  0  0
   10.3930   30.2720   22.1427 H   0  0  0  0  0  0  0  0  0  0  0  0
   12.5678   30.9665   22.1430 H   0  0  0  0  0  0  0  0  0  0  0  0
   12.1286   32.6694   21.7231 H   0  0  0  0  0  0  0  0  0  0  0  0
   12.6233   31.4375   24.3411 H   0  0  0  0  0  0  0  0  0  0  0  0
   12.5420   33.1917   23.8326 H   0  0  0  0  0  0  0  0  0  0  0  0
    9.9687   32.7567   23.8297 H   0  0  0  0  0  0  0  0  0  0  0  0
   10.4675   31.3975   24.9750 H   0  0  0  0  0  0  0  0  0  0  0  0
   11.7211   33.7945   25.8268 H   0  0  0  0  0  0  0  0  0  0  0  0
    9.9402   34.1049   25.5603 H   0  0  0  0  0  0  0  0  0  0  0  0
    9.2865   32.6269   27.1891 H   0  0  0  0  0  0  0  0  0  0  0  0
   10.8194   31.6696   27.0820 H   0  0  0  0  0  0  0  0  0  0  0  0
   10.6631   34.5121   28.1606 H   0  0  0  0  0  0  0  0  0  0  0  0
   10.5661   32.9949   29.1773 H   0  0  0  0  0  0  0  0  0  0  0  0
   12.7667   32.4512   28.8462 H   0  0  0  0  0  0  0  0  0  0  0  0
   12.8678   33.4652   27.3200 H   0  0  0  0  0  0  0  0  0  0  0  0
   14.1151   34.7535   28.6842 H   0  0  0  0  0  0  0  0  0  0  0  0
   12.4378   35.3966   29.0526 H   0  0  0  0  0  0  0  0  0  0  0  0
  1  2  1  0
  2  3  1  0
  3  4  1  0
  4  5  1  0
  5  6  1  0
  6  7  1  0
  7  8  1  0
  8  9  1  0
  9 10  1  0
 10 11  1  0
 11 12  1  0
 12 13  1  0
 13 14  1  0
 14 15  1  0
 15 16  1  0
 16 17  2  0
 16 18  1  0
  1 19  1  0
  1 20  1  0
  1 21  1  0
  2 22  1  0
  2 23  1  0
  3 24  1  0
  3 25  1  0
  4 26  1  0
  4 27  1  0
  5 28  1  0
  5 29  1  0
  6 30  1  0
  6 31  1  0
  7 32  1  0
  7 33  1  0
  8 34  1  0
  8 35  1  0
  9 36  1  0
  9 37  1  0
 10 38  1  0
 10 39  1  0
 11 40  1  0
 11 41  1  0
 12 42  1  0
 12 43  1  0
 13 44  1  0
 13 45  1  0
 14 46  1  0
 14 47  1  0
 15 48  1  0
 15 49  1  0
M  CHG  1  18  -1
M  END
>  <meeko>  (17) 
{"is_sidechain": [false], "free_energy": -5.274, "intermolecular_energy": -10.899, "internal_energy": -0.678}

$$$$
palmitate_Clobe_run01
     RDKit          3D

 49 48  0  0  0  0  0  0  0  0999 V2000
   12.3940   33.0490   27.9750 C   0  0  0  0  0  0  0  0  0  0  0  0
   12.2200   33.3930   26.5050 C   0  0  0  0  0  0  0  0  0  0  0  0
   10.7940   33.8110   26.1370 C   0  0  0  0  0  0  0  0  0  0  0  0
   10.1170   32.8540   25.1510 C   0  0  0  0  0  0  0  0  0  0  0  0
   11.0560   32.3430   24.0520 C   0  0  0  0  0  0  0  0  0  0  0  0
   10.4460   32.2160   22.6530 C   0  0  0  0  0  0  0  0  0  0  0  0
   11.3160   31.4230   21.6760 C   0  0  0  0  0  0  0  0  0  0  0  0
   10.7430   31.4730   20.2580 C   0  0  0  0  0  0  0  0  0  0  0  0
    9.2530   31.8190   20.2790 C   0  0  0  0  0  0  0  0  0  0  0  0
    8.6970   32.2250   18.9100 C   0  0  0  0  0  0  0  0  0  0  0  0
    9.4600   31.6910   17.6930 C   0  0  0  0  0  0  0  0  0  0  0  0
    8.5480   31.2320   16.5520 C   0  0  0  0  0  0  0  0  0  0  0  0
    7.8960   29.8850   16.8680 C   0  0  0  0  0  0  0  0  0  0  0  0
    6.3720   29.9600   17.0290 C   0  0  0  0  0  0  0  0  0  0  0  0
    5.8810   29.8370   18.4710 C   0  0  0  0  0  0  0  0  0  0  0  0
    5.2990   31.1070   19.0420 C   0  0  0  0  0  0  0  0  0  0  0  0
    5.0010   32.0840   18.3680 O   0  0  0  0  0  0  0  0  0  0  0  0
    5.1700   31.0670   20.3900 O   0  0  0  0  0  0  0  0  0  0  0  0
   11.9832   33.8612   28.5927 H   0  0  0  0  0  0  0  0  0  0  0  0
   11.8609   32.1130   28.1981 H   0  0  0  0  0  0  0  0  0  0  0  0
   13.4638   32.9238   28.1981 H   0  0  0  0  0  0  0  0  0  0  0  0
   12.8996   34.2223   26.2593 H   0  0  0  0  0  0  0  0  0  0  0  0
   12.4466   32.4818   25.9319 H   0  0  0  0  0  0  0  0  0  0  0  0
   10.1924   33.8472   27.0572 H   0  0  0  0  0  0  0  0  0  0  0  0
   10.8591   34.7928   25.6452 H   0  0  0  0  0  0  0  0  0  0  0  0
    9.7347   31.9887   25.7124 H   0  0  0  0  0  0  0  0  0  0  0  0
    9.3133   33.4169   24.6539 H   0  0  0  0  0  0  0  0  0  0  0  0
   11.9066   33.0374   23.9865 H   0  0  0  0  0  0  0  0  0  0  0  0
   11.3315   31.3204   24.3493 H   0  0  0  0  0  0  0  0  0  0  0  0
    9.4733   31.7101   22.7422 H   0  0  0  0  0  0  0  0  0  0  0  0
   10.3519   33.2344   22.2481 H   0  0  0  0  0  0  0  0  0  0  0  0
   12.3291   31.8514   21.6688 H   0  0  0  0  0  0  0  0  0  0  0  0
   11.3407   30.3735   22.0047 H   0  0  0  0  0  0  0  0  0  0  0  0
   11.2815   32.2381   19.6795 H   0  0  0  0  0  0  0  0  0  0  0  0
   10.8655   30.4822   19.7961 H   0  0  0  0  0  0  0  0  0  0  0  0
    8.6967   30.9385   20.6328 H   0  0  0  0  0  0  0  0  0  0  0  0
    9.1330   32.6859   20.9453 H   0  0  0  0  0  0  0  0  0  0  0  0
    7.6613   31.8603   18.8452 H   0  0  0  0  0  0  0  0  0  0  0  0
    8.7907   33.3200   18.8633 H   0  0  0  0  0  0  0  0  0  0  0  0
   10.1150   32.4898   17.3150 H   0  0  0  0  0  0  0  0  0  0  0  0
   10.0265   30.8097   18.0282 H   0  0  0  0  0  0  0  0  0  0  0  0
    7.7601   31.9841   16.3987 H   0  0  0  0  0  0  0  0  0  0  0  0
    9.1590   31.1171   15.6445 H   0  0  0  0  0  0  0  0  0  0  0  0
    8.1247   29.1877   16.0485 H   0  0  0  0  0  0  0  0  0  0  0  0
    8.3049   29.5483   17.8321 H   0  0  0  0  0  0  0  0  0  0  0  0
    6.0316   30.9274   16.6313 H   0  0  0  0  0  0  0  0  0  0  0  0
    5.9567   29.1005   16.4824 H   0  0  0  0  0  0  0  0  0  0  0  0
    5.1056   29.0575   18.5051 H   0  0  0  0  0  0  0  0  0  0  0  0
    6.7619   29.5926   19.0828 H   0  0  0  0  0  0  0  0  0  0  0  0
  1  2  1  0
  2  3  1  0
  3  4  1  0
  4  5  1  0
  5  6  1  0
  6  7  1  0
  7  8  1  0
  8  9  1  0
  9 10  1  0
 10 11  1  0
 11 12  1  0
 12 13  1  0
 13 14  1  0
 14 15  1  0
 15 16  1  0
 16 17  2  0
 16 18  1  0
  1 19  1  0
  1 20  1  0
  1 21  1  0
  2 22  1  0
  2 23  1  0
  3 24  1  0
  3 25  1  0
  4 26  1  0
  4 27  1  0
  5 28  1  0
  5 29  1  0
  6 30  1  0
  6 31  1  0
  7 32  1  0
  7 33  1  0
  8 34  1  0
  8 35  1  0
  9 36  1  0
  9 37  1  0
 10 38  1  0
 10 39  1  0
 11 40  1  0
 11 41  1  0
 12 42  1  0
 12 43  1  0
 13 44  1  0
 13 45  1  0
 14 46  1  0
 14 47  1  0
 15 48  1  0
 15 49  1  0
M  CHG  1  18  -1
M  END
>  <meeko>  (18) 
{"is_sidechain": [false], "free_energy": -5.271, "intermolecular_energy": -10.562, "internal_energy": -1.009}

$$$$
palmitate_Clobe_run01
     RDKit          3D

 49 48  0  0  0  0  0  0  0  0999 V2000
   10.6110   35.1150   26.5320 C   0  0  0  0  0  0  0  0  0  0  0  0
   10.6820   33.6550   26.1130 C   0  0  0  0  0  0  0  0  0  0  0  0
   12.1120   33.1200   25.9940 C   0  0  0  0  0  0  0  0  0  0  0  0
   12.4230   32.5270   24.6160 C   0  0  0  0  0  0  0  0  0  0  0  0
   11.1710   32.1650   23.8090 C   0  0  0  0  0  0  0  0  0  0  0  0
   11.4030   31.7960   22.3400 C   0  0  0  0  0  0  0  0  0  0  0  0
   10.1170   31.4500   21.5870 C   0  0  0  0  0  0  0  0  0  0  0  0
   10.2290   31.8100   20.1040 C   0  0  0  0  0  0  0  0  0  0  0  0
    8.9890   31.3530   19.3320 C   0  0  0  0  0  0  0  0  0  0  0  0
    9.2850   30.9210   17.8930 C   0  0  0  0  0  0  0  0  0  0  0  0
    8.4980   29.7090   17.3820 C   0  0  0  0  0  0  0  0  0  0  0  0
    7.0770   29.6190   17.9460 C   0  0  0  0  0  0  0  0  0  0  0  0
    6.0490   30.1690   16.9560 C   0  0  0  0  0  0  0  0  0  0  0  0
    4.8800   30.9030   17.6240 C   0  0  0  0  0  0  0  0  0  0  0  0
    5.2460   32.2560   18.2340 C   0  0  0  0  0  0  0  0  0  0  0  0
    5.8480   33.2360   17.2580 C   0  0  0  0  0  0  0  0  0  0  0  0
    7.0520   33.4240   17.1330 O   0  0  0  0  0  0  0  0  0  0  0  0
    4.9140   33.9180   16.5510 O   0  0  0  0  0  0  0  0  0  0  0  0
   10.6078   35.1816   27.6300 H   0  0  0  0  0  0  0  0  0  0  0  0
   11.4840   35.6534   26.1346 H   0  0  0  0  0  0  0  0  0  0  0  0
    9.6899   35.5662   26.1346 H   0  0  0  0  0  0  0  0  0  0  0  0
   10.1463   33.0521   26.8610 H   0  0  0  0  0  0  0  0  0  0  0  0
   10.2268   33.5836   25.1142 H   0  0  0  0  0  0  0  0  0  0  0  0
   12.8115   33.9473   26.1843 H   0  0  0  0  0  0  0  0  0  0  0  0
   12.2196   32.3096   26.7299 H   0  0  0  0  0  0  0  0  0  0  0  0
   13.0053   33.2638   24.0433 H   0  0  0  0  0  0  0  0  0  0  0  0
   12.9806   31.5938   24.7839 H   0  0  0  0  0  0  0  0  0  0  0  0
   10.6906   31.3059   24.3001 H   0  0  0  0  0  0  0  0  0  0  0  0
   10.5548   33.0760   23.7925 H   0  0  0  0  0  0  0  0  0  0  0  0
   11.8814   32.6499   21.8379 H   0  0  0  0  0  0  0  0  0  0  0  0
   12.0364   30.8968   22.3285 H   0  0  0  0  0  0  0  0  0  0  0  0
    9.9259   30.3708   21.6806 H   0  0  0  0  0  0  0  0  0  0  0  0
    9.2910   32.0300   22.0244 H   0  0  0  0  0  0  0  0  0  0  0  0
   10.3319   32.9008   20.0057 H   0  0  0  0  0  0  0  0  0  0  0  0
   11.1092   31.2999   19.6857 H   0  0  0  0  0  0  0  0  0  0  0  0
    8.5421   30.5011   19.8655 H   0  0  0  0  0  0  0  0  0  0  0  0
    8.3091   32.2159   19.2754 H   0  0  0  0  0  0  0  0  0  0  0  0
    9.0599   31.7716   17.2328 H   0  0  0  0  0  0  0  0  0  0  0  0
   10.3413   30.6142   17.8859 H   0  0  0  0  0  0  0  0  0  0  0  0
    8.4337   29.7731   16.2858 H   0  0  0  0  0  0  0  0  0  0  0  0
    9.0359   28.8101   17.7175 H   0  0  0  0  0  0  0  0  0  0  0  0
    6.8419   28.5655   18.1581 H   0  0  0  0  0  0  0  0  0  0  0  0
    7.0300   30.2215   18.8651 H   0  0  0  0  0  0  0  0  0  0  0  0
    6.5591   30.8712   16.2802 H   0  0  0  0  0  0  0  0  0  0  0  0
    5.6236   29.3063   16.4224 H   0  0  0  0  0  0  0  0  0  0  0  0
    4.0998   31.0676   16.8663 H   0  0  0  0  0  0  0  0  0  0  0  0
    4.5448   30.2656   18.4555 H   0  0  0  0  0  0  0  0  0  0  0  0
    4.3323   32.7037   18.6519 H   0  0  0  0  0  0  0  0  0  0  0  0
    6.0141   32.0596   18.9965 H   0  0  0  0  0  0  0  0  0  0  0  0
  1  2  1  0
  2  3  1  0
  3  4  1  0
  4  5  1  0
  5  6  1  0
  6  7  1  0
  7  8  1  0
  8  9  1  0
  9 10  1  0
 10 11  1  0
 11 12  1  0
 12 13  1  0
 13 14  1  0
 14 15  1  0
 15 16  1  0
 16 17  2  0
 16 18  1  0
  1 19  1  0
  1 20  1  0
  1 21  1  0
  2 22  1  0
  2 23  1  0
  3 24  1  0
  3 25  1  0
  4 26  1  0
  4 27  1  0
  5 28  1  0
  5 29  1  0
  6 30  1  0
  6 31  1  0
  7 32  1  0
  7 33  1  0
  8 34  1  0
  8 35  1  0
  9 36  1  0
  9 37  1  0
 10 38  1  0
 10 39  1  0
 11 40  1  0
 11 41  1  0
 12 42  1  0
 12 43  1  0
 13 44  1  0
 13 45  1  0
 14 46  1  0
 14 47  1  0
 15 48  1  0
 15 49  1  0
M  CHG  1  18  -1
M  END
>  <meeko>  (19) 
{"is_sidechain": [false], "free_energy": -5.269, "intermolecular_energy": -10.663, "internal_energy": -0.905}

$$$$
palmitate_Clobe_run01
     RDKit          3D

 49 48  0  0  0  0  0  0  0  0999 V2000
   13.6960   33.4900   29.7140 C   0  0  0  0  0  0  0  0  0  0  0  0
   12.8020   33.3730   28.4890 C   0  0  0  0  0  0  0  0  0  0  0  0
   12.5640   34.7070   27.7740 C   0  0  0  0  0  0  0  0  0  0  0  0
   11.8470   34.5540   26.4290 C   0  0  0  0  0  0  0  0  0  0  0  0
   10.8180   33.4170   26.4110 C   0  0  0  0  0  0  0  0  0  0  0  0
   10.6980   32.6420   25.0950 C   0  0  0  0  0  0  0  0  0  0  0  0
   12.0480   32.3050   24.4590 C   0  0  0  0  0  0  0  0  0  0  0  0
   11.9320   32.1950   22.9370 C   0  0  0  0  0  0  0  0  0  0  0  0
   10.4660   32.1960   22.4970 C   0  0  0  0  0  0  0  0  0  0  0  0
   10.1630   31.2070   21.3670 C   0  0  0  0  0  0  0  0  0  0  0  0
    9.5720   31.8110   20.0880 C   0  0  0  0  0  0  0  0  0  0  0  0
   10.5480   31.8250   18.9090 C   0  0  0  0  0  0  0  0  0  0  0  0
    9.8340   31.5290   17.5900 C   0  0  0  0  0  0  0  0  0  0  0  0
    8.9290   30.2920   17.6420 C   0  0  0  0  0  0  0  0  0  0  0  0
    7.4900   30.5390   17.1880 C   0  0  0  0  0  0  0  0  0  0  0  0
    6.4420   29.8990   18.0650 C   0  0  0  0  0  0  0  0  0  0  0  0
    5.2370   30.0490   17.9080 O   0  0  0  0  0  0  0  0  0  0  0  0
    6.9740   29.1640   19.0710 O   0  0  0  0  0  0  0  0  0  0  0  0
   13.0833   33.4098   30.6241 H   0  0  0  0  0  0  0  0  0  0  0  0
   14.4422   32.6818   29.7019 H   0  0  0  0  0  0  0  0  0  0  0  0
   14.2091   34.4630   29.7019 H   0  0  0  0  0  0  0  0  0  0  0  0
   13.2737   32.6773   27.7794 H   0  0  0  0  0  0  0  0  0  0  0  0
   11.8223   33.0144   28.8376 H   0  0  0  0  0  0  0  0  0  0  0  0
   11.9515   35.3478   28.4253 H   0  0  0  0  0  0  0  0  0  0  0  0
   13.5509   35.1474   27.5689 H   0  0  0  0  0  0  0  0  0  0  0  0
   11.3282   35.4969   26.2016 H   0  0  0  0  0  0  0  0  0  0  0  0
   12.6137   34.3088   25.6793 H   0  0  0  0  0  0  0  0  0  0  0  0
   11.0933   32.7011   27.1995 H   0  0  0  0  0  0  0  0  0  0  0  0
    9.8406   33.8985   26.5623 H   0  0  0  0  0  0  0  0  0  0  0  0
   10.1619   31.7020   25.2924 H   0  0  0  0  0  0  0  0  0  0  0  0
   10.1596   33.2890   24.3868 H   0  0  0  0  0  0  0  0  0  0  0  0
   12.7692   33.0976   24.7073 H   0  0  0  0  0  0  0  0  0  0  0  0
   12.3857   31.3351   24.8531 H   0  0  0  0  0  0  0  0  0  0  0  0
   12.4470   33.0498   22.4743 H   0  0  0  0  0  0  0  0  0  0  0  0
   12.3930   31.2486   22.6179 H   0  0  0  0  0  0  0  0  0  0  0  0
    9.8426   31.9341   23.3646 H   0  0  0  0  0  0  0  0  0  0  0  0
   10.2461   33.2026   22.1117 H   0  0  0  0  0  0  0  0  0  0  0  0
   11.1036   30.7038   21.0985 H   0  0  0  0  0  0  0  0  0  0  0  0
    9.3894   30.5321   21.7621 H   0  0  0  0  0  0  0  0  0  0  0  0
    8.6886   31.2217   19.8011 H   0  0  0  0  0  0  0  0  0  0  0  0
    9.3216   32.8585   20.3118 H   0  0  0  0  0  0  0  0  0  0  0  0
   11.0191   32.8170   18.8461 H   0  0  0  0  0  0  0  0  0  0  0  0
   11.3040   31.0437   19.0762 H   0  0  0  0  0  0  0  0  0  0  0  0
    9.2163   32.4002   17.3266 H   0  0  0  0  0  0  0  0  0  0  0  0
   10.6138   31.3251   16.8415 H   0  0  0  0  0  0  0  0  0  0  0  0
    9.3661   29.5191   16.9928 H   0  0  0  0  0  0  0  0  0  0  0  0
    8.8759   29.9877   18.6977 H   0  0  0  0  0  0  0  0  0  0  0  0
    7.3139   31.6248   17.1777 H   0  0  0  0  0  0  0  0  0  0  0  0
    7.3909   30.0795   16.1935 H   0  0  0  0  0  0  0  0  0  0  0  0
  1  2  1  0
  2  3  1  0
  3  4  1  0
  4  5  1  0
  5  6  1  0
  6  7  1  0
  7  8  1  0
  8  9  1  0
  9 10  1  0
 10 11  1  0
 11 12  1  0
 12 13  1  0
 13 14  1  0
 14 15  1  0
 15 16  1  0
 16 17  2  0
 16 18  1  0
  1 19  1  0
  1 20  1  0
  1 21  1  0
  2 22  1  0
  2 23  1  0
  3 24  1  0
  3 25  1  0
  4 26  1  0
  4 27  1  0
  5 28  1  0
  5 29  1  0
  6 30  1  0
  6 31  1  0
  7 32  1  0
  7 33  1  0
  8 34  1  0
  8 35  1  0
  9 36  1  0
  9 37  1  0
 10 38  1  0
 10 39  1  0
 11 40  1  0
 11 41  1  0
 12 42  1  0
 12 43  1  0
 13 44  1  0
 13 45  1  0
 14 46  1  0
 14 47  1  0
 15 48  1  0
 15 49  1  0
M  CHG  1  18  -1
M  END
>  <meeko>  (20) 
{"is_sidechain": [false], "free_energy": -5.23, "intermolecular_energy": -10.622, "internal_energy": -0.874}

$$$$
