stearate_Clobe_run02
     RDKit          3D

 55 54  0  0  0  0  0  0  0  0999 V2000
    4.5330   34.5500   16.1220 C   0  0  0  0  0  0  0  0  0  0  0  0
    5.5130   33.6390   16.8460 C   0  0  0  0  0  0  0  0  0  0  0  0
    4.8370   32.6410   17.7890 C   0  0  0  0  0  0  0  0  0  0  0  0
    4.6800   31.2450   17.1820 C   0  0  0  0  0  0  0  0  0  0  0  0
    5.6500   30.2500   17.8240 C   0  0  0  0  0  0  0  0  0  0  0  0
    6.5960   29.5870   16.8170 C   0  0  0  0  0  0  0  0  0  0  0  0
    8.0900   29.8410   17.0410 C   0  0  0  0  0  0  0  0  0  0  0  0
    8.5800   31.2570   16.7230 C   0  0  0  0  0  0  0  0  0  0  0  0
    9.3140   31.9230   17.8850 C   0  0  0  0  0  0  0  0  0  0  0  0
    8.3940   32.6040   18.9070 C   0  0  0  0  0  0  0  0  0  0  0  0
    8.1610   31.8130   20.2000 C   0  0  0  0  0  0  0  0  0  0  0  0
    6.8320   32.1630   20.8760 C   0  0  0  0  0  0  0  0  0  0  0  0
    6.9930   33.0540   22.1130 C   0  0  0  0  0  0  0  0  0  0  0  0
    8.3980   33.6120   22.3610 C   0  0  0  0  0  0  0  0  0  0  0  0
    8.9910   33.3390   23.7470 C   0  0  0  0  0  0  0  0  0  0  0  0
   10.2690   32.4950   23.7130 C   0  0  0  0  0  0  0  0  0  0  0  0
   10.8720   32.4160   22.3130 C   0  0  0  0  0  0  0  0  0  0  0  0
   12.1270   31.5880   22.2670 C   0  0  0  0  0  0  0  0  0  0  0  0
   13.1100   31.7330   22.9740 O   0  0  0  0  0  0  0  0  0  0  0  0
   12.0770   30.6020   21.3540 O   0  0  0  0  0  0  0  0  0  0  0  0
    3.9353   35.1056   16.8596 H   0  0  0  0  0  0  0  0  0  0  0  0
    5.0891   35.2594   15.4914 H   0  0  0  0  0  0  0  0  0  0  0  0
    3.8660   33.9437   15.4914 H   0  0  0  0  0  0  0  0  0  0  0  0
    6.0847   33.0752   16.0942 H   0  0  0  0  0  0  0  0  0  0  0  0
    6.1568   34.2824   17.4637 H   0  0  0  0  0  0  0  0  0  0  0  0
    5.4438   32.5581   18.7028 H   0  0  0  0  0  0  0  0  0  0  0  0
    3.8259   33.0218   17.9957 H   0  0  0  0  0  0  0  0  0  0  0  0
    3.6492   30.8970   17.3444 H   0  0  0  0  0  0  0  0  0  0  0  0
    4.9040   31.3055   16.1067 H   0  0  0  0  0  0  0  0  0  0  0  0
    6.2550   30.7851   18.5708 H   0  0  0  0  0  0  0  0  0  0  0  0
    5.0440   29.4507   18.2755 H   0  0  0  0  0  0  0  0  0  0  0  0
    6.4278   28.5008   16.8601 H   0  0  0  0  0  0  0  0  0  0  0  0
    6.3586   30.0373   15.8419 H   0  0  0  0  0  0  0  0  0  0  0  0
    8.3123   29.6364   18.0987 H   0  0  0  0  0  0  0  0  0  0  0  0
    8.6148   29.1780   16.3374 H   0  0  0  0  0  0  0  0  0  0  0  0
    9.2645   31.2038   15.8635 H   0  0  0  0  0  0  0  0  0  0  0  0
    7.6899   31.8672   16.5103 H   0  0  0  0  0  0  0  0  0  0  0  0
    9.9001   31.1533   18.4085 H   0  0  0  0  0  0  0  0  0  0  0  0
    9.9404   32.7150   17.4488 H   0  0  0  0  0  0  0  0  0  0  0  0
    8.8409   33.5726   19.1757 H   0  0  0  0  0  0  0  0  0  0  0  0
    7.4110   32.6950   18.4218 H   0  0  0  0  0  0  0  0  0  0  0  0
    8.1620   30.7393   19.9607 H   0  0  0  0  0  0  0  0  0  0  0  0
    8.9685   32.0748   20.8996 H   0  0  0  0  0  0  0  0  0  0  0  0
    6.1984   32.6897   20.1472 H   0  0  0  0  0  0  0  0  0  0  0  0
    6.3811   31.2181   21.2135 H   0  0  0  0  0  0  0  0  0  0  0  0
    6.3065   33.9067   22.0051 H   0  0  0  0  0  0  0  0  0  0  0  0
    6.7749   32.4065   22.9751 H   0  0  0  0  0  0  0  0  0  0  0  0
    9.0729   33.1708   21.6127 H   0  0  0  0  0  0  0  0  0  0  0  0
    8.3013   34.7053   22.2885 H   0  0  0  0  0  0  0  0  0  0  0  0
    9.2241   34.3037   24.2215 H   0  0  0  0  0  0  0  0  0  0  0  0
    8.2409   32.7652   24.3110 H   0  0  0  0  0  0  0  0  0  0  0  0
   11.0084   32.9446   24.3921 H   0  0  0  0  0  0  0  0  0  0  0  0
   10.0069   31.4734   24.0254 H   0  0  0  0  0  0  0  0  0  0  0  0
   10.1302   31.9685   21.6351 H   0  0  0  0  0  0  0  0  0  0  0  0
   11.1376   33.4388   22.0076 H   0  0  0  0  0  0  0  0  0  0  0  0
  1  2  1  0
  2  3  1  0
  3  4  1  0
  4  5  1  0
  5  6  1  0
  6  7  1  0
  7  8  1  0
  8  9  1  0
  9 10  1  0
 10 11  1  0
 11 12  1  0
 12 13  1  0
 13 14  1  0
 14 15  1  0
 15 16  1  0
 16 17  1  0
 17 18  1  0
 18 19  2  0
 18 20  1  0
  1 21  1  0
  1 22  1  0
  1 23  1  0
  2 24  1  0
  2 25  1  0
  3 26  1  0
  3 27  1  0
  4 28  1  0
  4 29  1  0
  5 30  1  0
  5 31  1  0
  6 32  1  0
  6 33  1  0
  7 34  1  0
  7 35  1  0
  8 36  1  0
  8 37  1  0
  9 38  1  0
  9 39  1  0
 10 40  1  0
 10 41  1  0
 11 42  1  0
 11 43  1  0
 12 44  1  0
 12 45  1  0
 13 46  1  0
 13 47  1  0
 14 48  1  0
 14 49  1  0
 15 50  1  0
 15 51  1  0
 16 52  1  0
 16 53  1  0
 17 54  1  0
 17 55  1  0
M  CHG  1  20  -1
M  END
>  <meeko>  (1) 
{"is_sidechain": [false], "free_energy": -6.001, "intermolecular_energy": -11.613, "internal_energy": -2.142}

$$$$
stearate_Clobe_run02
     RDKit          3D

 55 54  0  0  0  0  0  0  0  0999 V2000
    8.0390   34.1540   22.6640 C   0  0  0  0  0  0  0  0  0  0  0  0
    8.5700   32.8460   22.0970 C   0  0  0  0  0  0  0  0  0  0  0  0
    9.9810   32.4990   22.5790 C   0  0  0  0  0  0  0  0  0  0  0  0
   10.7810   31.6750   21.5670 C   0  0  0  0  0  0  0  0  0  0  0  0
   10.1410   31.7310   20.1790 C   0  0  0  0  0  0  0  0  0  0  0  0
   11.1630   31.8040   19.0400 C   0  0  0  0  0  0  0  0  0  0  0  0
   10.8420   32.8010   17.9210 C   0  0  0  0  0  0  0  0  0  0  0  0
    9.3700   32.8880   17.5090 C   0  0  0  0  0  0  0  0  0  0  0  0
    9.1460   32.6930   16.0100 C   0  0  0  0  0  0  0  0  0  0  0  0
    8.6340   31.3000   15.6220 C   0  0  0  0  0  0  0  0  0  0  0  0
    8.3090   30.3750   16.8020 C   0  0  0  0  0  0  0  0  0  0  0  0
    6.9370   29.7080   16.6710 C   0  0  0  0  0  0  0  0  0  0  0  0
    6.0740   29.8330   17.9320 C   0  0  0  0  0  0  0  0  0  0  0  0
    6.6310   30.7340   19.0390 C   0  0  0  0  0  0  0  0  0  0  0  0
    6.1950   32.2020   18.9890 C   0  0  0  0  0  0  0  0  0  0  0  0
    5.1890   32.5060   17.8750 C   0  0  0  0  0  0  0  0  0  0  0  0
    5.6750   33.6160   16.9450 C   0  0  0  0  0  0  0  0  0  0  0  0
    4.5520   34.2730   16.1910 C   0  0  0  0  0  0  0  0  0  0  0  0
    4.6690   35.1250   15.3260 O   0  0  0  0  0  0  0  0  0  0  0  0
    3.3380   33.8110   16.5400 O   0  0  0  0  0  0  0  0  0  0  0  0
    8.0564   34.1111   23.7630 H   0  0  0  0  0  0  0  0  0  0  0  0
    8.6705   34.9862   22.3195 H   0  0  0  0  0  0  0  0  0  0  0  0
    7.0061   34.3105   22.3195 H   0  0  0  0  0  0  0  0  0  0  0  0
    7.8903   32.0350   22.3974 H   0  0  0  0  0  0  0  0  0  0  0  0
    8.6215   32.9644   21.0046 H   0  0  0  0  0  0  0  0  0  0  0  0
   10.5238   33.4358   22.7734 H   0  0  0  0  0  0  0  0  0  0  0  0
    9.8739   31.8861   23.4861 H   0  0  0  0  0  0  0  0  0  0  0  0
   11.8038   32.0753   21.5069 H   0  0  0  0  0  0  0  0  0  0  0  0
   10.7935   30.6276   21.9028 H   0  0  0  0  0  0  0  0  0  0  0  0
    9.5288   30.8277   20.0407 H   0  0  0  0  0  0  0  0  0  0  0  0
    9.5401   32.6514   20.1355 H   0  0  0  0  0  0  0  0  0  0  0  0
   12.1337   32.0849   19.4746 H   0  0  0  0  0  0  0  0  0  0  0  0
   11.1561   30.8108   18.5673 H   0  0  0  0  0  0  0  0  0  0  0  0
   11.1580   33.7995   18.2575 H   0  0  0  0  0  0  0  0  0  0  0  0
   11.3801   32.4374   17.0331 H   0  0  0  0  0  0  0  0  0  0  0  0
    8.8103   32.1102   18.0491 H   0  0  0  0  0  0  0  0  0  0  0  0
    9.0223   33.9010   17.7599 H   0  0  0  0  0  0  0  0  0  0  0  0
    8.4091   33.4367   15.6726 H   0  0  0  0  0  0  0  0  0  0  0  0
   10.1274   32.8125   15.5277 H   0  0  0  0  0  0  0  0  0  0  0  0
    7.7181   31.4272   15.0262 H   0  0  0  0  0  0  0  0  0  0  0  0
    9.4522   30.8156   15.0689 H   0  0  0  0  0  0  0  0  0  0  0  0
    9.0779   29.5902   16.8558 H   0  0  0  0  0  0  0  0  0  0  0  0
    8.2923   30.9921   17.7125 H   0  0  0  0  0  0  0  0  0  0  0  0
    6.4001   30.1774   15.8335 H   0  0  0  0  0  0  0  0  0  0  0  0
    7.1132   28.6351   16.5042 H   0  0  0  0  0  0  0  0  0  0  0  0
    5.0950   30.2346   17.6316 H   0  0  0  0  0  0  0  0  0  0  0  0
    6.0318   28.8225   18.3645 H   0  0  0  0  0  0  0  0  0  0  0  0
    6.3085   30.3193   20.0054 H   0  0  0  0  0  0  0  0  0  0  0  0
    7.7216   30.7421   18.8960 H   0  0  0  0  0  0  0  0  0  0  0  0
    5.7341   32.4608   19.9537 H   0  0  0  0  0  0  0  0  0  0  0  0
    7.0955   32.7987   18.7816 H   0  0  0  0  0  0  0  0  0  0  0  0
    5.0293   31.5927   17.2831 H   0  0  0  0  0  0  0  0  0  0  0  0
    4.2553   32.8459   18.3470 H   0  0  0  0  0  0  0  0  0  0  0  0
    6.1892   34.3797   17.5469 H   0  0  0  0  0  0  0  0  0  0  0  0
    6.3496   33.1593   16.2059 H   0  0  0  0  0  0  0  0  0  0  0  0
  1  2  1  0
  2  3  1  0
  3  4  1  0
  4  5  1  0
  5  6  1  0
  6  7  1  0
  7  8  1  0
  8  9  1  0
  9 10  1  0
 10 11  1  0
 11 12  1  0
 12 13  1  0
 13 14  1  0
 14 15  1  0
 15 16  1  0
 16 17  1  0
 17 18  1  0
 18 19  2  0
 18 20  1  0
  1 21  1  0
  1 22  1  0
  1 23  1  0
  2 24  1  0
  2 25  1  0
  3 26  1  0
  3 27  1  0
  4 28  1  0
  4 29  1  0
  5 30  1  0
  5 31  1  0
  6 32  1  0
  6 33  1  0
  7 34  1  0
  7 35  1  0
  8 36  1  0
  8 37  1  0
  9 38  1  0
  9 39  1  0
 10 40  1  0
 10 41  1  0
 11 42  1  0
 11 43  1  0
 12 44  1  0
 12 45  1  0
 13 46  1  0
 13 47  1  0
 14 48  1  0
 14 49  1  0
 15 50  1  0
 15 51  1  0
 16 52  1  0
 16 53  1  0
 17 54  1  0
 17 55  1  0
M  CHG  1  20  -1
M  END
>  <meeko>  (2) 
{"is_sidechain": [false], "free_energy": -5.973, "intermolecular_energy": -11.398, "internal_energy": -2.305}

$$$$
stearate_Clobe_run02
     RDKit          3D

 55 54  0  0  0  0  0  0  0  0999 V2000
    4.2580   31.4220   17.3870 C   0  0  0  0  0  0  0  0  0  0  0  0
    5.1600   32.1700   18.3570 C   0  0  0  0  0  0  0  0  0  0  0  0
    5.5330   31.3550   19.5970 C   0  0  0  0  0  0  0  0  0  0  0  0
    6.3940   32.1320   20.5970 C   0  0  0  0  0  0  0  0  0  0  0  0
    5.6100   32.4480   21.8730 C   0  0  0  0  0  0  0  0  0  0  0  0
    6.3030   33.4750   22.7740 C   0  0  0  0  0  0  0  0  0  0  0  0
    7.7470   33.8230   22.3970 C   0  0  0  0  0  0  0  0  0  0  0  0
    8.8350   33.1550   23.2440 C   0  0  0  0  0  0  0  0  0  0  0  0
   10.1050   32.8320   22.4580 C   0  0  0  0  0  0  0  0  0  0  0  0
   10.1010   31.4510   21.7910 C   0  0  0  0  0  0  0  0  0  0  0  0
    9.9220   31.4650   20.2680 C   0  0  0  0  0  0  0  0  0  0  0  0
   11.2070   31.8410   19.5240 C   0  0  0  0  0  0  0  0  0  0  0  0
   11.1020   31.6790   18.0040 C   0  0  0  0  0  0  0  0  0  0  0  0
   10.5010   32.8650   17.2420 C   0  0  0  0  0  0  0  0  0  0  0  0
    9.0090   33.1220   17.4740 C   0  0  0  0  0  0  0  0  0  0  0  0
    8.1040   32.4880   16.4150 C   0  0  0  0  0  0  0  0  0  0  0  0
    8.5510   31.0760   16.0430 C   0  0  0  0  0  0  0  0  0  0  0  0
    7.7420   30.0110   16.7320 C   0  0  0  0  0  0  0  0  0  0  0  0
    6.7430   29.4700   16.2910 O   0  0  0  0  0  0  0  0  0  0  0  0
    8.2410   29.6590   17.9310 O   0  0  0  0  0  0  0  0  0  0  0  0
    3.5315   30.8196   17.9521 H   0  0  0  0  0  0  0  0  0  0  0  0
    3.7218   32.1441   16.7537 H   0  0  0  0  0  0  0  0  0  0  0  0
    4.8684   30.7614   16.7537 H   0  0  0  0  0  0  0  0  0  0  0  0
    6.0855   32.4451   17.8300 H   0  0  0  0  0  0  0  0  0  0  0  0
    4.6003   33.0505   18.7053 H   0  0  0  0  0  0  0  0  0  0  0  0
    4.6065   31.0440   20.1019 H   0  0  0  0  0  0  0  0  0  0  0  0
    6.1276   30.4952   19.2546 H   0  0  0  0  0  0  0  0  0  0  0  0
    7.2753   31.5275   20.8576 H   0  0  0  0  0  0  0  0  0  0  0  0
    6.6989   33.0807   20.1312 H   0  0  0  0  0  0  0  0  0  0  0  0
    4.6241   32.8436   21.5876 H   0  0  0  0  0  0  0  0  0  0  0  0
    5.5324   31.5126   22.4466 H   0  0  0  0  0  0  0  0  0  0  0  0
    5.7131   34.4030   22.7445 H   0  0  0  0  0  0  0  0  0  0  0  0
    6.3567   33.0118   23.7703 H   0  0  0  0  0  0  0  0  0  0  0  0
    7.9038   33.5253   21.3497 H   0  0  0  0  0  0  0  0  0  0  0  0
    7.8507   34.9036   22.5743 H   0  0  0  0  0  0  0  0  0  0  0  0
    9.0989   33.8324   24.0695 H   0  0  0  0  0  0  0  0  0  0  0  0
    8.4248   32.1999   23.6040 H   0  0  0  0  0  0  0  0  0  0  0  0
   10.2273   33.5931   21.6733 H   0  0  0  0  0  0  0  0  0  0  0  0
   10.9319   32.8288   23.1834 H   0  0  0  0  0  0  0  0  0  0  0  0
   11.0593   30.9606   22.0170 H   0  0  0  0  0  0  0  0  0  0  0  0
    9.2293   30.9170   22.1971 H   0  0  0  0  0  0  0  0  0  0  0  0
    9.6071   30.4628   19.9417 H   0  0  0  0  0  0  0  0  0  0  0  0
    9.1656   32.2274   20.0299 H   0  0  0  0  0  0  0  0  0  0  0  0
   11.4437   32.8919   19.7468 H   0  0  0  0  0  0  0  0  0  0  0  0
   11.9939   31.1543   19.8693 H   0  0  0  0  0  0  0  0  0  0  0  0
   12.1156   31.5066   17.6131 H   0  0  0  0  0  0  0  0  0  0  0  0
   10.4086   30.8405   17.8423 H   0  0  0  0  0  0  0  0  0  0  0  0
   11.0495   33.7705   17.5408 H   0  0  0  0  0  0  0  0  0  0  0  0
   10.5976   32.6135   16.1755 H   0  0  0  0  0  0  0  0  0  0  0  0
    8.7344   32.7110   18.4567 H   0  0  0  0  0  0  0  0  0  0  0  0
    8.8574   34.2100   17.4171 H   0  0  0  0  0  0  0  0  0  0  0  0
    7.0775   32.4424   16.8078 H   0  0  0  0  0  0  0  0  0  0  0  0
    8.1593   33.1089   15.5087 H   0  0  0  0  0  0  0  0  0  0  0  0
    8.4467   30.9488   14.9554 H   0  0  0  0  0  0  0  0  0  0  0  0
    9.5959   30.9618   16.3673 H   0  0  0  0  0  0  0  0  0  0  0  0
  1  2  1  0
  2  3  1  0
  3  4  1  0
  4  5  1  0
  5  6  1  0
  6  7  1  0
  7  8  1  0
  8  9  1  0
  9 10  1  0
 10 11  1  0
 11 12  1  0
 12 13  1  0
 13 14  1  0
 14 15  1  0
 15 16  1  0
 16 17  1  0
 17 18  1  0
 18 19  2  0
 18 20  1  0
  1 21  1  0
  1 22  1  0
  1 23  1  0
  2 24  1  0
  2 25  1  0
  3 26  1  0
  3 27  1  0
  4 28  1  0
  4 29  1  0
  5 30  1  0
  5 31  1  0
  6 32  1  0
  6 33  1  0
  7 34  1  0
  7 35  1  0
  8 36  1  0
  8 37  1  0
  9 38  1  0
  9 39  1  0
 10 40  1  0
 10 41  1  0
 11 42  1  0
 11 43  1  0
 12 44  1  0
 12 45  1  0
 13 46  1  0
 13 47  1  0
 14 48  1  0
 14 49  1  0
 15 50  1  0
 15 51  1  0
 16 52  1  0
 16 53  1  0
 17 54  1  0
 17 55  1  0
M  CHG  1  20  -1
M  END
>  <meeko>  (3) 
{"is_sidechain": [false], "free_energy": -5.776, "intermolecular_energy": -11.575, "internal_energy": -1.745}

$$$$
stearate_Clobe_run02
     RDKit          3D

 55 54  0  0  0  0  0  0  0  0999 V2000
   10.4200   32.8630   16.8450 C   0  0  0  0  0  0  0  0  0  0  0  0
    8.9300   32.6320   16.6450 C   0  0  0  0  0  0  0  0  0  0  0  0
    8.6050   31.3190   15.9290 C   0  0  0  0  0  0  0  0  0  0  0  0
    8.2950   30.1670   16.8880 C   0  0  0  0  0  0  0  0  0  0  0  0
    6.8380   29.7170   16.7600 C   0  0  0  0  0  0  0  0  0  0  0  0
    6.1180   29.5960   18.1070 C   0  0  0  0  0  0  0  0  0  0  0  0
    5.1100   30.7050   18.4240 C   0  0  0  0  0  0  0  0  0  0  0  0
    5.7050   32.0130   18.9570 C   0  0  0  0  0  0  0  0  0  0  0  0
    6.4450   31.8490   20.2830 C   0  0  0  0  0  0  0  0  0  0  0  0
    7.8980   32.3420   20.2620 C   0  0  0  0  0  0  0  0  0  0  0  0
    8.9600   31.2350   20.2710 C   0  0  0  0  0  0  0  0  0  0  0  0
   10.3830   31.7820   20.4260 C   0  0  0  0  0  0  0  0  0  0  0  0
   10.9890   31.5210   21.8080 C   0  0  0  0  0  0  0  0  0  0  0  0
   10.3640   32.2970   22.9730 C   0  0  0  0  0  0  0  0  0  0  0  0
   11.1650   32.3010   24.2790 C   0  0  0  0  0  0  0  0  0  0  0  0
   10.4080   32.9120   25.4620 C   0  0  0  0  0  0  0  0  0  0  0  0
   11.3330   33.2440   26.6300 C   0  0  0  0  0  0  0  0  0  0  0  0
   11.6270   34.7150   26.7380 C   0  0  0  0  0  0  0  0  0  0  0  0
   12.7080   35.2150   26.9980 O   0  0  0  0  0  0  0  0  0  0  0  0
   10.5550   35.4890   26.4880 O   0  0  0  0  0  0  0  0  0  0  0  0
   10.6444   32.8978   17.9213 H   0  0  0  0  0  0  0  0  0  0  0  0
   10.9842   32.0416   16.3792 H   0  0  0  0  0  0  0  0  0  0  0  0
   10.7090   33.8167   16.3792 H   0  0  0  0  0  0  0  0  0  0  0  0
    8.4443   32.6196   17.6319 H   0  0  0  0  0  0  0  0  0  0  0  0
    8.5595   33.4480   16.0071 H   0  0  0  0  0  0  0  0  0  0  0  0
    7.7293   31.4809   15.2832 H   0  0  0  0  0  0  0  0  0  0  0  0
    9.4974   31.0324   15.3532 H   0  0  0  0  0  0  0  0  0  0  0  0
    8.9545   29.3182   16.6542 H   0  0  0  0  0  0  0  0  0  0  0  0
    8.4624   30.5163   17.9175 H   0  0  0  0  0  0  0  0  0  0  0  0
    6.2997   30.4502   16.1415 H   0  0  0  0  0  0  0  0  0  0  0  0
    6.8462   28.7155   16.3050 H   0  0  0  0  0  0  0  0  0  0  0  0
    5.5795   28.6369   18.1173 H   0  0  0  0  0  0  0  0  0  0  0  0
    6.9023   29.6758   18.8741 H   0  0  0  0  0  0  0  0  0  0  0  0
    4.5602   30.9360   17.4997 H   0  0  0  0  0  0  0  0  0  0  0  0
    4.4775   30.3121   19.2336 H   0  0  0  0  0  0  0  0  0  0  0  0
    6.4113   32.4042   18.2100 H   0  0  0  0  0  0  0  0  0  0  0  0
    4.8657   32.7008   19.1374 H   0  0  0  0  0  0  0  0  0  0  0  0
    5.9006   32.4149   21.0533 H   0  0  0  0  0  0  0  0  0  0  0  0
    6.4822   30.7695   20.4908 H   0  0  0  0  0  0  0  0  0  0  0  0
    8.0407   32.9440   19.3524 H   0  0  0  0  0  0  0  0  0  0  0  0
    8.0418   32.9126   21.1914 H   0  0  0  0  0  0  0  0  0  0  0  0
    8.7515   30.5541   21.1094 H   0  0  0  0  0  0  0  0  0  0  0  0
    8.9072   30.7160   19.3026 H   0  0  0  0  0  0  0  0  0  0  0  0
   11.0237   31.3060   19.6690 H   0  0  0  0  0  0  0  0  0  0  0  0
   10.3267   32.8730   20.2974 H   0  0  0  0  0  0  0  0  0  0  0  0
   10.8845   30.4475   22.0241 H   0  0  0  0  0  0  0  0  0  0  0  0
   12.0309   31.8681   21.7454 H   0  0  0  0  0  0  0  0  0  0  0  0
   10.2362   33.3415   22.6525 H   0  0  0  0  0  0  0  0  0  0  0  0
    9.4206   31.7804   23.2034 H   0  0  0  0  0  0  0  0  0  0  0  0
   11.4237   31.2620   24.5312 H   0  0  0  0  0  0  0  0  0  0  0  0
   12.0549   32.9249   24.1092 H   0  0  0  0  0  0  0  0  0  0  0  0
    9.9146   33.8364   25.1273 H   0  0  0  0  0  0  0  0  0  0  0  0
    9.6748   32.1706   25.8125 H   0  0  0  0  0  0  0  0  0  0  0  0
   10.8548   32.9113   27.5631 H   0  0  0  0  0  0  0  0  0  0  0  0
   12.2878   32.7265   26.4550 H   0  0  0  0  0  0  0  0  0  0  0  0
  1  2  1  0
  2  3  1  0
  3  4  1  0
  4  5  1  0
  5  6  1  0
  6  7  1  0
  7  8  1  0
  8  9  1  0
  9 10  1  0
 10 11  1  0
 11 12  1  0
 12 13  1  0
 13 14  1  0
 14 15  1  0
 15 16  1  0
 16 17  1  0
 17 18  1  0
 18 19  2  0
 18 20  1  0
  1 21  1  0
  1 22  1  0
  1 23  1  0
  2 24  1  0
  2 25  1  0
  3 26  1  0
  3 27  1  0
  4 28  1  0
  4 29  1  0
  5 30  1  0
  5 31  1  0
  6 32  1  0
  6 33  1  0
  7 34  1  0
  7 35  1  0
  8 36  1  0
  8 37  1  0
  9 38  1  0
  9 39  1  0
 10 40  1  0
 10 41  1  0
 11 42  1  0
 11 43  1  0
 12 44  1  0
 12 45  1  0
 13 46  1  0
 13 47  1  0
 14 48  1  0
 14 49  1  0
 15 50  1  0
 15 51  1  0
 16 52  1  0
 16 53  1  0
 17 54  1  0
 17 55  1  0
M  CHG  1  20  -1
M  END
>  <meeko>  (4) 
{"is_sidechain": [false], "free_energy": -5.72, "intermolecular_energy": -11.449, "internal_energy": -1.764}

$$$$
stearate_Clobe_run02
     RDKit          3D

 55 54  0  0  0  0  0  0  0  0999 V2000
    5.6330   33.5810   16.8260 C   0  0  0  0  0  0  0  0  0  0  0  0
    4.5300   32.7540   17.4690 C   0  0  0  0  0  0  0  0  0  0  0  0
    4.7630   31.2440   17.3730 C   0  0  0  0  0  0  0  0  0  0  0  0
    5.6500   30.6950   18.4930 C   0  0  0  0  0  0  0  0  0  0  0  0
    5.1020   31.0770   19.8700 C   0  0  0  0  0  0  0  0  0  0  0  0
    6.0590   31.9550   20.6830 C   0  0  0  0  0  0  0  0  0  0  0  0
    5.4890   32.5320   21.9830 C   0  0  0  0  0  0  0  0  0  0  0  0
    6.4450   33.4080   22.7980 C   0  0  0  0  0  0  0  0  0  0  0  0
    7.8590   33.4620   22.2230 C   0  0  0  0  0  0  0  0  0  0  0  0
    8.9700   33.5250   23.2800 C   0  0  0  0  0  0  0  0  0  0  0  0
   10.1450   32.5680   23.0450 C   0  0  0  0  0  0  0  0  0  0  0  0
   10.0280   31.8000   21.7240 C   0  0  0  0  0  0  0  0  0  0  0  0
   11.3430   31.1550   21.2740 C   0  0  0  0  0  0  0  0  0  0  0  0
   11.8170   31.5110   19.8610 C   0  0  0  0  0  0  0  0  0  0  0  0
   10.7690   32.1520   18.9470 C   0  0  0  0  0  0  0  0  0  0  0  0
   10.0710   31.1540   18.0180 C   0  0  0  0  0  0  0  0  0  0  0  0
    8.8640   31.7670   17.3130 C   0  0  0  0  0  0  0  0  0  0  0  0
    8.6120   31.1610   15.9600 C   0  0  0  0  0  0  0  0  0  0  0  0
    8.9580   31.6260   14.8880 O   0  0  0  0  0  0  0  0  0  0  0  0
    7.9590   29.9860   16.0200 O   0  0  0  0  0  0  0  0  0  0  0  0
    6.2496   34.0433   17.6109 H   0  0  0  0  0  0  0  0  0  0  0  0
    6.2623   32.9303   16.2011 H   0  0  0  0  0  0  0  0  0  0  0  0
    5.1847   34.3674   16.2011 H   0  0  0  0  0  0  0  0  0  0  0  0
    4.4635   33.0290   18.5320 H   0  0  0  0  0  0  0  0  0  0  0  0
    3.6011   32.9731   16.9221 H   0  0  0  0  0  0  0  0  0  0  0  0
    3.7880   30.7368   17.4196 H   0  0  0  0  0  0  0  0  0  0  0  0
    5.2841   31.0549   16.4229 H   0  0  0  0  0  0  0  0  0  0  0  0
    5.6901   29.5986   18.4142 H   0  0  0  0  0  0  0  0  0  0  0  0
    6.6553   31.1284   18.3855 H   0  0  0  0  0  0  0  0  0  0  0  0
    4.1590   31.6257   19.7301 H   0  0  0  0  0  0  0  0  0  0  0  0
    4.9597   30.1431   20.4336 H   0  0  0  0  0  0  0  0  0  0  0  0
    6.9391   31.3473   20.9403 H   0  0  0  0  0  0  0  0  0  0  0  0
    6.2864   32.8215   20.0447 H   0  0  0  0  0  0  0  0  0  0  0  0
    4.6099   33.1409   21.7253 H   0  0  0  0  0  0  0  0  0  0  0  0
    5.2609   31.6650   22.6204 H   0  0  0  0  0  0  0  0  0  0  0  0
    6.0413   34.4308   22.8270 H   0  0  0  0  0  0  0  0  0  0  0  0
    6.5194   32.9612   23.8004 H   0  0  0  0  0  0  0  0  0  0  0  0
    8.0165   32.5615   21.6113 H   0  0  0  0  0  0  0  0  0  0  0  0
    7.9262   34.3926   21.6403 H   0  0  0  0  0  0  0  0  0  0  0  0
    9.3648   34.5515   23.2989 H   0  0  0  0  0  0  0  0  0  0  0  0
    8.5081   33.2164   24.2294 H   0  0  0  0  0  0  0  0  0  0  0  0
   11.0770   33.1521   23.0310 H   0  0  0  0  0  0  0  0  0  0  0  0
   10.1396   31.8293   23.8601 H   0  0  0  0  0  0  0  0  0  0  0  0
    9.2756   31.0071   21.8476 H   0  0  0  0  0  0  0  0  0  0  0  0
    9.7432   32.5282   20.9503 H   0  0  0  0  0  0  0  0  0  0  0  0
   12.1281   31.4636   21.9800 H   0  0  0  0  0  0  0  0  0  0  0  0
   11.1518   30.0718   21.2585 H   0  0  0  0  0  0  0  0  0  0  0  0
   12.6581   32.2137   19.9545 H   0  0  0  0  0  0  0  0  0  0  0  0
   12.0825   30.5551   19.3858 H   0  0  0  0  0  0  0  0  0  0  0  0
   10.0060   32.6327   19.5768 H   0  0  0  0  0  0  0  0  0  0  0  0
   11.2982   32.8727   18.3062 H   0  0  0  0  0  0  0  0  0  0  0  0
   10.7904   30.8151   17.2580 H   0  0  0  0  0  0  0  0  0  0  0  0
    9.7121   30.3155   18.6329 H   0  0  0  0  0  0  0  0  0  0  0  0
    7.9737   31.6108   17.9398 H   0  0  0  0  0  0  0  0  0  0  0  0
    9.0743   32.8364   17.1639 H   0  0  0  0  0  0  0  0  0  0  0  0
  1  2  1  0
  2  3  1  0
  3  4  1  0
  4  5  1  0
  5  6  1  0
  6  7  1  0
  7  8  1  0
  8  9  1  0
  9 10  1  0
 10 11  1  0
 11 12  1  0
 12 13  1  0
 13 14  1  0
 14 15  1  0
 15 16  1  0
 16 17  1  0
 17 18  1  0
 18 19  2  0
 18 20  1  0
  1 21  1  0
  1 22  1  0
  1 23  1  0
  2 24  1  0
  2 25  1  0
  3 26  1  0
  3 27  1  0
  4 28  1  0
  4 29  1  0
  5 30  1  0
  5 31  1  0
  6 32  1  0
  6 33  1  0
  7 34  1  0
  7 35  1  0
  8 36  1  0
  8 37  1  0
  9 38  1  0
  9 39  1  0
 10 40  1  0
 10 41  1  0
 11 42  1  0
 11 43  1  0
 12 44  1  0
 12 45  1  0
 13 46  1  0
 13 47  1  0
 14 48  1  0
 14 49  1  0
 15 50  1  0
 15 51  1  0
 16 52  1  0
 16 53  1  0
 17 54  1  0
 17 55  1  0
M  CHG  1  20  -1
M  END
>  <meeko>  (5) 
{"is_sidechain": [false], "free_energy": -5.686, "intermolecular_energy": -11.443, "internal_energy": -1.704}

$$$$
stearate_Clobe_run02
     RDKit          3D

 55 54  0  0  0  0  0  0  0  0999 V2000
   10.5830   34.1960   29.5790 C   0  0  0  0  0  0  0  0  0  0  0  0
   10.7190   35.4260   28.6950 C   0  0  0  0  0  0  0  0  0  0  0  0
   10.7950   35.1010   27.2010 C   0  0  0  0  0  0  0  0  0  0  0  0
   12.1870   34.6510   26.7500 C   0  0  0  0  0  0  0  0  0  0  0  0
   12.1120   33.3700   25.9160 C   0  0  0  0  0  0  0  0  0  0  0  0
   10.6810   32.9780   25.5320 C   0  0  0  0  0  0  0  0  0  0  0  0
   10.5220   32.2890   24.1730 C   0  0  0  0  0  0  0  0  0  0  0  0
   11.8090   32.1140   23.3610 C   0  0  0  0  0  0  0  0  0  0  0  0
   11.5630   31.6820   21.9170 C   0  0  0  0  0  0  0  0  0  0  0  0
   10.0870   31.4600   21.5660 C   0  0  0  0  0  0  0  0  0  0  0  0
    9.7510   31.5640   20.0720 C   0  0  0  0  0  0  0  0  0  0  0  0
   10.9840   31.8420   19.2070 C   0  0  0  0  0  0  0  0  0  0  0  0
   10.6440   32.4180   17.8280 C   0  0  0  0  0  0  0  0  0  0  0  0
    9.2900   33.1260   17.7110 C   0  0  0  0  0  0  0  0  0  0  0  0
    8.3380   32.5740   16.6450 C   0  0  0  0  0  0  0  0  0  0  0  0
    7.0590   31.9610   17.2220 C   0  0  0  0  0  0  0  0  0  0  0  0
    6.9320   30.4750   16.8950 C   0  0  0  0  0  0  0  0  0  0  0  0
    7.6400   29.5980   17.8910 C   0  0  0  0  0  0  0  0  0  0  0  0
    7.1790   29.1890   18.9430 O   0  0  0  0  0  0  0  0  0  0  0  0
    8.8830   29.2580   17.5070 O   0  0  0  0  0  0  0  0  0  0  0  0
   10.6165   34.4986   30.6360 H   0  0  0  0  0  0  0  0  0  0  0  0
    9.6244   33.6986   29.3702 H   0  0  0  0  0  0  0  0  0  0  0  0
   11.4098   33.5011   29.3702 H   0  0  0  0  0  0  0  0  0  0  0  0
    9.8476   36.0752   28.8659 H   0  0  0  0  0  0  0  0  0  0  0  0
   11.6654   35.9161   28.9673 H   0  0  0  0  0  0  0  0  0  0  0  0
   10.0793   34.2948   26.9821 H   0  0  0  0  0  0  0  0  0  0  0  0
   10.5578   36.0252   26.6537 H   0  0  0  0  0  0  0  0  0  0  0  0
   12.6425   35.4477   26.1436 H   0  0  0  0  0  0  0  0  0  0  0  0
   12.7943   34.4488   27.6446 H   0  0  0  0  0  0  0  0  0  0  0  0
   12.6922   33.5198   24.9935 H   0  0  0  0  0  0  0  0  0  0  0  0
   12.5177   32.5554   26.5339 H   0  0  0  0  0  0  0  0  0  0  0  0
   10.2994   32.2939   26.3043 H   0  0  0  0  0  0  0  0  0  0  0  0
   10.1220   33.9223   25.4562 H   0  0  0  0  0  0  0  0  0  0  0  0
   10.0950   31.2906   24.3485 H   0  0  0  0  0  0  0  0  0  0  0  0
    9.8786   32.9513   23.5751 H   0  0  0  0  0  0  0  0  0  0  0  0
   12.3476   33.0731   23.3508 H   0  0  0  0  0  0  0  0  0  0  0  0
   12.3905   31.3147   23.8437 H   0  0  0  0  0  0  0  0  0  0  0  0
   11.9615   32.4621   21.2517 H   0  0  0  0  0  0  0  0  0  0  0  0
   12.0659   30.7121   21.7890 H   0  0  0  0  0  0  0  0  0  0  0  0
    9.8022   30.4549   21.9103 H   0  0  0  0  0  0  0  0  0  0  0  0
    9.5289   32.2673   22.0627 H   0  0  0  0  0  0  0  0  0  0  0  0
    9.2990   30.6156   19.7461 H   0  0  0  0  0  0  0  0  0  0  0  0
    9.0586   32.4093   19.9451 H   0  0  0  0  0  0  0  0  0  0  0  0
   11.6261   32.5613   19.7364 H   0  0  0  0  0  0  0  0  0  0  0  0
   11.4875   30.8782   19.0407 H   0  0  0  0  0  0  0  0  0  0  0  0
   11.4272   33.1438   17.5640 H   0  0  0  0  0  0  0  0  0  0  0  0
   10.5857   31.5527   17.1513 H   0  0  0  0  0  0  0  0  0  0  0  0
    8.7850   33.0515   18.6854 H   0  0  0  0  0  0  0  0  0  0  0  0
    9.5180   34.1569   17.4024 H   0  0  0  0  0  0  0  0  0  0  0  0
    8.0559   33.3966   15.9714 H   0  0  0  0  0  0  0  0  0  0  0  0
    8.8734   31.7684   16.1211 H   0  0  0  0  0  0  0  0  0  0  0  0
    7.0696   32.0833   18.3151 H   0  0  0  0  0  0  0  0  0  0  0  0
    6.2018   32.4805   16.7688 H   0  0  0  0  0  0  0  0  0  0  0  0
    5.8652   30.2068   16.8859 H   0  0  0  0  0  0  0  0  0  0  0  0
    7.4019   30.3097   15.9142 H   0  0  0  0  0  0  0  0  0  0  0  0
  1  2  1  0
  2  3  1  0
  3  4  1  0
  4  5  1  0
  5  6  1  0
  6  7  1  0
  7  8  1  0
  8  9  1  0
  9 10  1  0
 10 11  1  0
 11 12  1  0
 12 13  1  0
 13 14  1  0
 14 15  1  0
 15 16  1  0
 16 17  1  0
 17 18  1  0
 18 19  2  0
 18 20  1  0
  1 21  1  0
  1 22  1  0
  1 23  1  0
  2 24  1  0
  2 25  1  0
  3 26  1  0
  3 27  1  0
  4 28  1  0
  4 29  1  0
  5 30  1  0
  5 31  1  0
  6 32  1  0
  6 33  1  0
  7 34  1  0
  7 35  1  0
  8 36  1  0
  8 37  1  0
  9 38  1  0
  9 39  1  0
 10 40  1  0
 10 41  1  0
 11 42  1  0
 11 43  1  0
 12 44  1  0
 12 45  1  0
 13 46  1  0
 13 47  1  0
 14 48  1  0
 14 49  1  0
 15 50  1  0
 15 51  1  0
 16 52  1  0
 16 53  1  0
 17 54  1  0
 17 55  1  0
M  CHG  1  20  -1
M  END
>  <meeko>  (6) 
{"is_sidechain": [false], "free_energy": -5.673, "intermolecular_energy": -11.731, "internal_energy": -1.391}

$$$$
stearate_Clobe_run02
     RDKit          3D

 55 54  0  0  0  0  0  0  0  0999 V2000
   10.5490   33.7700   29.5040 C   0  0  0  0  0  0  0  0  0  0  0  0
   10.7210   33.1130   28.1420 C   0  0  0  0  0  0  0  0  0  0  0  0
   12.1090   33.3230   27.5330 C   0  0  0  0  0  0  0  0  0  0  0  0
   12.1010   33.3450   26.0020 C   0  0  0  0  0  0  0  0  0  0  0  0
   10.7490   32.8890   25.4490 C   0  0  0  0  0  0  0  0  0  0  0  0
   10.8380   32.2950   24.0390 C   0  0  0  0  0  0  0  0  0  0  0  0
   12.2540   32.0840   23.4950 C   0  0  0  0  0  0  0  0  0  0  0  0
   12.3440   31.4970   22.0830 C   0  0  0  0  0  0  0  0  0  0  0  0
   11.0020   31.4590   21.3530 C   0  0  0  0  0  0  0  0  0  0  0  0
   11.0890   31.7620   19.8520 C   0  0  0  0  0  0  0  0  0  0  0  0
    9.7380   31.8930   19.1370 C   0  0  0  0  0  0  0  0  0  0  0  0
    8.5660   31.4020   19.9910 C   0  0  0  0  0  0  0  0  0  0  0  0
    7.2770   32.2030   19.7760 C   0  0  0  0  0  0  0  0  0  0  0  0
    5.9670   31.4290   19.9580 C   0  0  0  0  0  0  0  0  0  0  0  0
    4.9770   31.5070   18.7920 C   0  0  0  0  0  0  0  0  0  0  0  0
    5.6320   31.3430   17.4170 C   0  0  0  0  0  0  0  0  0  0  0  0
    5.8840   29.8780   17.0680 C   0  0  0  0  0  0  0  0  0  0  0  0
    7.3480   29.5480   16.9720 C   0  0  0  0  0  0  0  0  0  0  0  0
    8.1230   29.9560   16.1240 O   0  0  0  0  0  0  0  0  0  0  0  0
    7.7740   28.7400   17.9600 O   0  0  0  0  0  0  0  0  0  0  0  0
   10.7426   33.0304   30.2949 H   0  0  0  0  0  0  0  0  0  0  0  0
   11.2589   34.6047   29.6007 H   0  0  0  0  0  0  0  0  0  0  0  0
    9.5212   34.1497   29.6007 H   0  0  0  0  0  0  0  0  0  0  0  0
   10.5495   32.0321   28.2529 H   0  0  0  0  0  0  0  0  0  0  0  0
    9.9953   33.5835   27.4623 H   0  0  0  0  0  0  0  0  0  0  0  0
   12.5072   34.2827   27.8940 H   0  0  0  0  0  0  0  0  0  0  0  0
   12.7334   32.4724   27.8436 H   0  0  0  0  0  0  0  0  0  0  0  0
   12.3026   34.3698   25.6568 H   0  0  0  0  0  0  0  0  0  0  0  0
   12.8764   32.6540   25.6397 H   0  0  0  0  0  0  0  0  0  0  0  0
   10.3358   32.1250   26.1239 H   0  0  0  0  0  0  0  0  0  0  0  0
   10.1063   33.7795   25.3866 H   0  0  0  0  0  0  0  0  0  0  0  0
   10.3317   31.3185   24.0511 H   0  0  0  0  0  0  0  0  0  0  0  0
   10.3679   33.0332   23.3726 H   0  0  0  0  0  0  0  0  0  0  0  0
   12.7620   33.0597   23.4881 H   0  0  0  0  0  0  0  0  0  0  0  0
   12.7217   31.3414   24.1581 H   0  0  0  0  0  0  0  0  0  0  0  0
   13.0432   32.1096   21.4950 H   0  0  0  0  0  0  0  0  0  0  0  0
   12.6864   30.4567   22.1858 H   0  0  0  0  0  0  0  0  0  0  0  0
   10.5712   30.4545   21.4769 H   0  0  0  0  0  0  0  0  0  0  0  0
   10.3800   32.2499   21.7976 H   0  0  0  0  0  0  0  0  0  0  0  0
   11.6347   32.7088   19.7262 H   0  0  0  0  0  0  0  0  0  0  0  0
   11.5968   30.9005   19.3937 H   0  0  0  0  0  0  0  0  0  0  0  0
    9.5728   32.9518   18.8886 H   0  0  0  0  0  0  0  0  0  0  0  0
    9.7776   31.2643   18.2353 H   0  0  0  0  0  0  0  0  0  0  0  0
    8.3683   30.3496   19.7393 H   0  0  0  0  0  0  0  0  0  0  0  0
    8.8559   31.5309   21.0442 H   0  0  0  0  0  0  0  0  0  0  0  0
    7.2765   33.0384   20.4916 H   0  0  0  0  0  0  0  0  0  0  0  0
    7.2936   32.5141   18.7210 H   0  0  0  0  0  0  0  0  0  0  0  0
    6.2201   30.3701   20.1151 H   0  0  0  0  0  0  0  0  0  0  0  0
    5.4588   31.9002   20.8123 H   0  0  0  0  0  0  0  0  0  0  0  0
    4.2288   30.7105   18.9176 H   0  0  0  0  0  0  0  0  0  0  0  0
    4.5287   32.5112   18.8172 H   0  0  0  0  0  0  0  0  0  0  0  0
    4.9697   31.7796   16.6550 H   0  0  0  0  0  0  0  0  0  0  0  0
    6.6050   31.8555   17.4437 H   0  0  0  0  0  0  0  0  0  0  0  0
    5.4315   29.2476   17.8477 H   0  0  0  0  0  0  0  0  0  0  0  0
    5.4355   29.6895   16.0815 H   0  0  0  0  0  0  0  0  0  0  0  0
  1  2  1  0
  2  3  1  0
  3  4  1  0
  4  5  1  0
  5  6  1  0
  6  7  1  0
  7  8  1  0
  8  9  1  0
  9 10  1  0
 10 11  1  0
 11 12  1  0
 12 13  1  0
 13 14  1  0
 14 15  1  0
 15 16  1  0
 16 17  1  0
 17 18  1  0
 18 19  2  0
 18 20  1  0
  1 21  1  0
  1 22  1  0
  1 23  1  0
  2 24  1  0
  2 25  1  0
  3 26  1  0
  3 27  1  0
  4 28  1  0
  4 29  1  0
  5 30  1  0
  5 31  1  0
  6 32  1  0
  6 33  1  0
  7 34  1  0
  7 35  1  0
  8 36  1  0
  8 37  1  0
  9 38  1  0
  9 39  1  0
 10 40  1  0
 10 41  1  0
 11 42  1  0
 11 43  1  0
 12 44  1  0
 12 45  1  0
 13 46  1  0
 13 47  1  0
 14 48  1  0
 14 49  1  0
 15 50  1  0
 15 51  1  0
 16 52  1  0
 16 53  1  0
 17 54  1  0
 17 55  1  0
M  CHG  1  20  -1
M  END
>  <meeko>  (7) 
{"is_sidechain": [false], "free_energy": -5.664, "intermolecular_energy": -11.856, "internal_energy": -1.248}

$$$$
stearate_Clobe_run02
     RDKit          3D

 55 54  0  0  0  0  0  0  0  0999 V2000
    8.0070   29.1510   17.3920 C   0  0  0  0  0  0  0  0  0  0  0  0
    6.8730   29.8390   16.6460 C   0  0  0  0  0  0  0  0  0  0  0  0
    5.5500   29.8420   17.4150 C   0  0  0  0  0  0  0  0  0  0  0  0
    4.9980   31.2470   17.6660 C   0  0  0  0  0  0  0  0  0  0  0  0
    6.0130   32.1150   18.4140 C   0  0  0  0  0  0  0  0  0  0  0  0
    6.3610   31.5790   19.8070 C   0  0  0  0  0  0  0  0  0  0  0  0
    7.7210   32.0120   20.3660 C   0  0  0  0  0  0  0  0  0  0  0  0
    8.8450   32.1650   19.3370 C   0  0  0  0  0  0  0  0  0  0  0  0
   10.1690   31.5500   19.7870 C   0  0  0  0  0  0  0  0  0  0  0  0
   10.3360   31.4520   21.3080 C   0  0  0  0  0  0  0  0  0  0  0  0
   11.7870   31.4750   21.8060 C   0  0  0  0  0  0  0  0  0  0  0  0
   11.9140   32.0200   23.2320 C   0  0  0  0  0  0  0  0  0  0  0  0
   10.5670   32.3600   23.8780 C   0  0  0  0  0  0  0  0  0  0  0  0
   10.6250   32.8830   25.3170 C   0  0  0  0  0  0  0  0  0  0  0  0
   12.0070   33.3220   25.8130 C   0  0  0  0  0  0  0  0  0  0  0  0
   11.9550   34.3430   26.9530 C   0  0  0  0  0  0  0  0  0  0  0  0
   12.6750   33.8490   28.2050 C   0  0  0  0  0  0  0  0  0  0  0  0
   11.8290   33.9610   29.4440 C   0  0  0  0  0  0  0  0  0  0  0  0
   10.6130   34.0370   29.4790 O   0  0  0  0  0  0  0  0  0  0  0  0
   12.5490   33.9460   30.5800 O   0  0  0  0  0  0  0  0  0  0  0  0
    7.8456   29.2489   18.4757 H   0  0  0  0  0  0  0  0  0  0  0  0
    8.0317   28.0855   17.1198 H   0  0  0  0  0  0  0  0  0  0  0  0
    8.9634   29.6212   17.1198 H   0  0  0  0  0  0  0  0  0  0  0  0
    7.1656   30.8816   16.4524 H   0  0  0  0  0  0  0  0  0  0  0  0
    6.7063   29.2733   15.7175 H   0  0  0  0  0  0  0  0  0  0  0  0
    4.8079   29.2740   16.8349 H   0  0  0  0  0  0  0  0  0  0  0  0
    5.7440   29.3881   18.3980 H   0  0  0  0  0  0  0  0  0  0  0  0
    4.7652   31.7189   16.7000 H   0  0  0  0  0  0  0  0  0  0  0  0
    4.0919   31.1601   18.2836 H   0  0  0  0  0  0  0  0  0  0  0  0
    6.9364   32.1639   17.8183 H   0  0  0  0  0  0  0  0  0  0  0  0
    5.5549   33.1055   18.5518 H   0  0  0  0  0  0  0  0  0  0  0  0
    5.5837   31.9230   20.5052 H   0  0  0  0  0  0  0  0  0  0  0  0
    6.4147   30.4853   19.7022 H   0  0  0  0  0  0  0  0  0  0  0  0
    7.5870   32.9823   20.8666 H   0  0  0  0  0  0  0  0  0  0  0  0
    8.0395   31.2023   21.0391 H   0  0  0  0  0  0  0  0  0  0  0  0
    8.5322   31.6741   18.4037 H   0  0  0  0  0  0  0  0  0  0  0  0
    9.0173   33.2431   19.2030 H   0  0  0  0  0  0  0  0  0  0  0  0
   10.2378   30.5356   19.3671 H   0  0  0  0  0  0  0  0  0  0  0  0
   10.9648   32.2179   19.4257 H   0  0  0  0  0  0  0  0  0  0  0  0
    9.8055   32.3006   21.7645 H   0  0  0  0  0  0  0  0  0  0  0  0
    9.9277   30.4728   21.5987 H   0  0  0  0  0  0  0  0  0  0  0  0
   12.1826   30.4488   21.7849 H   0  0  0  0  0  0  0  0  0  0  0  0
   12.3553   32.1438   21.1429 H   0  0  0  0  0  0  0  0  0  0  0  0
   12.4157   31.2618   23.8512 H   0  0  0  0  0  0  0  0  0  0  0  0
   12.4892   32.9557   23.1710 H   0  0  0  0  0  0  0  0  0  0  0  0
   10.0819   33.1295   23.2596 H   0  0  0  0  0  0  0  0  0  0  0  0
   10.0149   31.4100   23.9298 H   0  0  0  0  0  0  0  0  0  0  0  0
    9.9502   33.7488   25.3887 H   0  0  0  0  0  0  0  0  0  0  0  0
   10.3348   32.0349   25.9545 H   0  0  0  0  0  0  0  0  0  0  0  0
   12.5476   32.4322   26.1679 H   0  0  0  0  0  0  0  0  0  0  0  0
   12.5127   33.8099   24.9667 H   0  0  0  0  0  0  0  0  0  0  0  0
   12.4315   35.2752   26.6153 H   0  0  0  0  0  0  0  0  0  0  0  0
   10.8984   34.5039   27.2133 H   0  0  0  0  0  0  0  0  0  0  0  0
   12.9487   32.7935   28.0601 H   0  0  0  0  0  0  0  0  0  0  0  0
   13.5620   34.4832   28.3501 H   0  0  0  0  0  0  0  0  0  0  0  0
  1  2  1  0
  2  3  1  0
  3  4  1  0
  4  5  1  0
  5  6  1  0
  6  7  1  0
  7  8  1  0
  8  9  1  0
  9 10  1  0
 10 11  1  0
 11 12  1  0
 12 13  1  0
 13 14  1  0
 14 15  1  0
 15 16  1  0
 16 17  1  0
 17 18  1  0
 18 19  2  0
 18 20  1  0
  1 21  1  0
  1 22  1  0
  1 23  1  0
  2 24  1  0
  2 25  1  0
  3 26  1  0
  3 27  1  0
  4 28  1  0
  4 29  1  0
  5 30  1  0
  5 31  1  0
  6 32  1  0
  6 33  1  0
  7 34  1  0
  7 35  1  0
  8 36  1  0
  8 37  1  0
  9 38  1  0
  9 39  1  0
 10 40  1  0
 10 41  1  0
 11 42  1  0
 11 43  1  0
 12 44  1  0
 12 45  1  0
 13 46  1  0
 13 47  1  0
 14 48  1  0
 14 49  1  0
 15 50  1  0
 15 51  1  0
 16 52  1  0
 16 53  1  0
 17 54  1  0
 17 55  1  0
M  CHG  1  20  -1
M  END
>  <meeko>  (8) 
{"is_sidechain": [false], "free_energy": -5.661, "intermolecular_energy": -11.838, "internal_energy": -1.26}

$$$$
stearate_Clobe_run02
     RDKit          3D

 55 54  0  0  0  0  0  0  0  0999 V2000
    5.3540   32.2100   17.8930 C   0  0  0  0  0  0  0  0  0  0  0  0
    5.3690   30.7100   18.1450 C   0  0  0  0  0  0  0  0  0  0  0  0
    6.1000   29.9150   17.0600 C   0  0  0  0  0  0  0  0  0  0  0  0
    7.5060   29.4750   17.4750 C   0  0  0  0  0  0  0  0  0  0  0  0
    8.5690   30.4270   16.9220 C   0  0  0  0  0  0  0  0  0  0  0  0
    9.5220   30.9650   17.9940 C   0  0  0  0  0  0  0  0  0  0  0  0
    8.9570   32.0730   18.8900 C   0  0  0  0  0  0  0  0  0  0  0  0
    8.7310   31.6930   20.3570 C   0  0  0  0  0  0  0  0  0  0  0  0
   10.0160   31.6650   21.1820 C   0  0  0  0  0  0  0  0  0  0  0  0
    9.9850   32.5550   22.4310 C   0  0  0  0  0  0  0  0  0  0  0  0
   10.9760   32.1610   23.5350 C   0  0  0  0  0  0  0  0  0  0  0  0
   10.5240   32.6170   24.9250 C   0  0  0  0  0  0  0  0  0  0  0  0
   11.6450   33.2570   25.7510 C   0  0  0  0  0  0  0  0  0  0  0  0
   11.2440   33.7870   27.1320 C   0  0  0  0  0  0  0  0  0  0  0  0
   11.6240   35.2420   27.4250 C   0  0  0  0  0  0  0  0  0  0  0  0
   12.6830   35.3910   28.5210 C   0  0  0  0  0  0  0  0  0  0  0  0
   13.0520   34.0510   29.1540 C   0  0  0  0  0  0  0  0  0  0  0  0
   13.2790   34.1520   30.6370 C   0  0  0  0  0  0  0  0  0  0  0  0
   12.4270   34.0480   31.5030 O   0  0  0  0  0  0  0  0  0  0  0  0
   14.5680   34.3540   30.9630 O   0  0  0  0  0  0  0  0  0  0  0  0
    5.3487   32.7434   18.8550 H   0  0  0  0  0  0  0  0  0  0  0  0
    6.2493   32.4947   17.3209 H   0  0  0  0  0  0  0  0  0  0  0  0
    4.4531   32.4767   17.3209 H   0  0  0  0  0  0  0  0  0  0  0  0
    5.8670   30.5238   19.1080 H   0  0  0  0  0  0  0  0  0  0  0  0
    4.3224   30.3716   18.1438 H   0  0  0  0  0  0  0  0  0  0  0  0
    5.5082   29.0177   16.8262 H   0  0  0  0  0  0  0  0  0  0  0  0
    6.2100   30.5778   16.1890 H   0  0  0  0  0  0  0  0  0  0  0  0
    7.5695   29.4651   18.5731 H   0  0  0  0  0  0  0  0  0  0  0  0
    7.6915   28.4705   17.0669 H   0  0  0  0  0  0  0  0  0  0  0  0
    9.1613   29.8879   16.1680 H   0  0  0  0  0  0  0  0  0  0  0  0
    8.0396   31.2916   16.4952 H   0  0  0  0  0  0  0  0  0  0  0  0
    9.8136   30.1237   18.6400 H   0  0  0  0  0  0  0  0  0  0  0  0
   10.3615   31.4199   17.4479 H   0  0  0  0  0  0  0  0  0  0  0  0
    9.6598   32.9189   18.8647 H   0  0  0  0  0  0  0  0  0  0  0  0
    7.9614   32.3067   18.4848 H   0  0  0  0  0  0  0  0  0  0  0  0
    8.0449   32.4266   20.8054 H   0  0  0  0  0  0  0  0  0  0  0  0
    8.3162   30.6743   20.3680 H   0  0  0  0  0  0  0  0  0  0  0  0
   10.1970   30.6284   21.5023 H   0  0  0  0  0  0  0  0  0  0  0  0
   10.8138   32.0586   20.5350 H   0  0  0  0  0  0  0  0  0  0  0  0
   10.2121   33.5857   22.1209 H   0  0  0  0  0  0  0  0  0  0  0  0
    8.9808   32.4398   22.8649 H   0  0  0  0  0  0  0  0  0  0  0  0
   11.0797   31.0659   23.5403 H   0  0  0  0  0  0  0  0  0  0  0  0
   11.9321   32.6591   23.3165 H   0  0  0  0  0  0  0  0  0  0  0  0
    9.7159   33.3535   24.8045 H   0  0  0  0  0  0  0  0  0  0  0  0
   10.1922   31.7201   25.4686 H   0  0  0  0  0  0  0  0  0  0  0  0
   12.4301   32.5003   25.8960 H   0  0  0  0  0  0  0  0  0  0  0  0
   11.9691   34.1383   25.1780 H   0  0  0  0  0  0  0  0  0  0  0  0
   10.1513   33.6989   27.2228 H   0  0  0  0  0  0  0  0  0  0  0  0
   11.8043   33.1803   27.8586 H   0  0  0  0  0  0  0  0  0  0  0  0
   12.0148   35.6921   26.5005 H   0  0  0  0  0  0  0  0  0  0  0  0
   10.7150   35.7463   27.7845 H   0  0  0  0  0  0  0  0  0  0  0  0
   13.5877   35.8358   28.0810 H   0  0  0  0  0  0  0  0  0  0  0  0
   12.2638   36.0327   29.3100 H   0  0  0  0  0  0  0  0  0  0  0  0
   12.2342   33.3384   28.9710 H   0  0  0  0  0  0  0  0  0  0  0  0
   13.9942   33.7157   28.6960 H   0  0  0  0  0  0  0  0  0  0  0  0
  1  2  1  0
  2  3  1  0
  3  4  1  0
  4  5  1  0
  5  6  1  0
  6  7  1  0
  7  8  1  0
  8  9  1  0
  9 10  1  0
 10 11  1  0
 11 12  1  0
 12 13  1  0
 13 14  1  0
 14 15  1  0
 15 16  1  0
 16 17  1  0
 17 18  1  0
 18 19  2  0
 18 20  1  0
  1 21  1  0
  1 22  1  0
  1 23  1  0
  2 24  1  0
  2 25  1  0
  3 26  1  0
  3 27  1  0
  4 28  1  0
  4 29  1  0
  5 30  1  0
  5 31  1  0
  6 32  1  0
  6 33  1  0
  7 34  1  0
  7 35  1  0
  8 36  1  0
  8 37  1  0
  9 38  1  0
  9 39  1  0
 10 40  1  0
 10 41  1  0
 11 42  1  0
 11 43  1  0
 12 44  1  0
 12 45  1  0
 13 46  1  0
 13 47  1  0
 14 48  1  0
 14 49  1  0
 15 50  1  0
 15 51  1  0
 16 52  1  0
 16 53  1  0
 17 54  1  0
 17 55  1  0
M  CHG  1  20  -1
M  END
>  <meeko>  (9) 
{"is_sidechain": [false], "free_energy": -5.638, "intermolecular_energy": -12.069, "internal_energy": -0.986}

$$$$
stearate_Clobe_run02
     RDKit          3D

 55 54  0  0  0  0  0  0  0  0999 V2000
    5.5600   31.7350   19.7580 C   0  0  0  0  0  0  0  0  0  0  0  0
    5.1890   31.0060   18.4750 C   0  0  0  0  0  0  0  0  0  0  0  0
    6.0590   29.7780   18.1960 C   0  0  0  0  0  0  0  0  0  0  0  0
    6.5870   29.7230   16.7610 C   0  0  0  0  0  0  0  0  0  0  0  0
    8.0790   30.0600   16.7070 C   0  0  0  0  0  0  0  0  0  0  0  0
    8.3580   31.5510   16.4870 C   0  0  0  0  0  0  0  0  0  0  0  0
    9.5830   32.1130   17.2150 C   0  0  0  0  0  0  0  0  0  0  0  0
    9.9700   31.4000   18.5140 C   0  0  0  0  0  0  0  0  0  0  0  0
    9.1140   31.8110   19.7110 C   0  0  0  0  0  0  0  0  0  0  0  0
    9.7600   31.5350   21.0750 C   0  0  0  0  0  0  0  0  0  0  0  0
   11.2920   31.4520   21.0640 C   0  0  0  0  0  0  0  0  0  0  0  0
   11.9120   31.7830   22.4250 C   0  0  0  0  0  0  0  0  0  0  0  0
   10.8840   32.2250   23.4720 C   0  0  0  0  0  0  0  0  0  0  0  0
   11.4430   32.5750   24.8550 C   0  0  0  0  0  0  0  0  0  0  0  0
   10.4270   33.1050   25.8720 C   0  0  0  0  0  0  0  0  0  0  0  0
   11.0590   33.9170   27.0060 C   0  0  0  0  0  0  0  0  0  0  0  0
   12.3080   34.6690   26.5510 C   0  0  0  0  0  0  0  0  0  0  0  0
   13.0260   35.3430   27.6880 C   0  0  0  0  0  0  0  0  0  0  0  0
   13.5880   36.4240   27.6430 O   0  0  0  0  0  0  0  0  0  0  0  0
   12.9810   34.6390   28.8330 O   0  0  0  0  0  0  0  0  0  0  0  0
    5.2528   31.1313   20.6247 H   0  0  0  0  0  0  0  0  0  0  0  0
    6.6482   31.8930   19.7884 H   0  0  0  0  0  0  0  0  0  0  0  0
    5.0473   32.7077   19.7884 H   0  0  0  0  0  0  0  0  0  0  0  0
    4.1411   30.6802   18.5505 H   0  0  0  0  0  0  0  0  0  0  0  0
    5.3487   31.7104   17.6454 H   0  0  0  0  0  0  0  0  0  0  0  0
    6.9176   29.7951   18.8834 H   0  0  0  0  0  0  0  0  0  0  0  0
    5.4264   28.8904   18.3444 H   0  0  0  0  0  0  0  0  0  0  0  0
    6.4332   28.7100   16.3607 H   0  0  0  0  0  0  0  0  0  0  0  0
    6.0404   30.4646   16.1600 H   0  0  0  0  0  0  0  0  0  0  0  0
    8.5400   29.7555   17.6582 H   0  0  0  0  0  0  0  0  0  0  0  0
    8.5034   29.5197   15.8479 H   0  0  0  0  0  0  0  0  0  0  0  0
    8.5027   31.7120   15.4085 H   0  0  0  0  0  0  0  0  0  0  0  0
    7.4909   32.0828   16.9056 H   0  0  0  0  0  0  0  0  0  0  0  0
   10.4405   32.0535   16.5286 H   0  0  0  0  0  0  0  0  0  0  0  0
    9.3138   33.1392   17.5056 H   0  0  0  0  0  0  0  0  0  0  0  0
    9.8600   30.3160   18.3627 H   0  0  0  0  0  0  0  0  0  0  0  0
   11.0073   31.6851   18.7439 H   0  0  0  0  0  0  0  0  0  0  0  0
    8.9139   32.8901   19.6369 H   0  0  0  0  0  0  0  0  0  0  0  0
    8.1990   31.2020   19.6673 H   0  0  0  0  0  0  0  0  0  0  0  0
    9.4673   32.3438   21.7607 H   0  0  0  0  0  0  0  0  0  0  0  0
    9.4015   30.5436   21.3891 H   0  0  0  0  0  0  0  0  0  0  0  0
   11.5870   30.4305   20.7820 H   0  0  0  0  0  0  0  0  0  0  0  0
   11.6597   32.1958   20.3418 H   0  0  0  0  0  0  0  0  0  0  0  0
   12.4281   30.8869   22.8000 H   0  0  0  0  0  0  0  0  0  0  0  0
   12.6010   32.6265   22.2709 H   0  0  0  0  0  0  0  0  0  0  0  0
   10.3679   33.1148   23.0824 H   0  0  0  0  0  0  0  0  0  0  0  0
   10.2272   31.3566   23.6283 H   0  0  0  0  0  0  0  0  0  0  0  0
   11.8975   31.6656   25.2750 H   0  0  0  0  0  0  0  0  0  0  0  0
   12.1553   33.3967   24.6893 H   0  0  0  0  0  0  0  0  0  0  0  0
    9.7086   33.7482   25.3426 H   0  0  0  0  0  0  0  0  0  0  0  0
    9.9457   32.2296   26.3324 H   0  0  0  0  0  0  0  0  0  0  0  0
   10.3213   34.6454   27.3738 H   0  0  0  0  0  0  0  0  0  0  0  0
   11.3577   33.2147   27.7982 H   0  0  0  0  0  0  0  0  0  0  0  0
   12.9954   33.9541   26.0751 H   0  0  0  0  0  0  0  0  0  0  0  0
   11.9868   35.4530   25.8495 H   0  0  0  0  0  0  0  0  0  0  0  0
  1  2  1  0
  2  3  1  0
  3  4  1  0
  4  5  1  0
  5  6  1  0
  6  7  1  0
  7  8  1  0
  8  9  1  0
  9 10  1  0
 10 11  1  0
 11 12  1  0
 12 13  1  0
 13 14  1  0
 14 15  1  0
 15 16  1  0
 16 17  1  0
 17 18  1  0
 18 19  2  0
 18 20  1  0
  1 21  1  0
  1 22  1  0
  1 23  1  0
  2 24  1  0
  2 25  1  0
  3 26  1  0
  3 27  1  0
  4 28  1  0
  4 29  1  0
  5 30  1  0
  5 31  1  0
  6 32  1  0
  6 33  1  0
  7 34  1  0
  7 35  1  0
  8 36  1  0
  8 37  1  0
  9 38  1  0
  9 39  1  0
 10 40  1  0
 10 41  1  0
 11 42  1  0
 11 43  1  0
 12 44  1  0
 12 45  1  0
 13 46  1  0
 13 47  1  0
 14 48  1  0
 14 49  1  0
 15 50  1  0
 15 51  1  0
 16 52  1  0
 16 53  1  0
 17 54  1  0
 17 55  1  0
M  CHG  1  20  -1
M  END
>  <meeko>  (10) 
{"is_sidechain": [false], "free_energy": -5.631, "intermolecular_energy": -11.802, "internal_energy": -1.239}

$$$$
stearate_Clobe_run02
     RDKit          3D

 55 54  0  0  0  0  0  0  0  0999 V2000
    8.5900   31.5760   16.4640 C   0  0  0  0  0  0  0  0  0  0  0  0
    8.9640   30.3020   17.2070 C   0  0  0  0  0  0  0  0  0  0  0  0
    7.7730   29.3810   17.4800 C   0  0  0  0  0  0  0  0  0  0  0  0
    6.5460   29.7070   16.6240 C   0  0  0  0  0  0  0  0  0  0  0  0
    5.3970   30.2370   17.4840 C   0  0  0  0  0  0  0  0  0  0  0  0
    5.7290   30.2900   18.9790 C   0  0  0  0  0  0  0  0  0  0  0  0
    5.2950   31.5640   19.7120 C   0  0  0  0  0  0  0  0  0  0  0  0
    6.3210   32.1580   20.6810 C   0  0  0  0  0  0  0  0  0  0  0  0
    7.7270   32.2560   20.0920 C   0  0  0  0  0  0  0  0  0  0  0  0
    8.8400   31.7570   21.0230 C   0  0  0  0  0  0  0  0  0  0  0  0
   10.2170   31.6040   20.3650 C   0  0  0  0  0  0  0  0  0  0  0  0
   11.3320   31.3420   21.3820 C   0  0  0  0  0  0  0  0  0  0  0  0
   11.1240   32.0650   22.7170 C   0  0  0  0  0  0  0  0  0  0  0  0
   12.3770   32.2630   23.5760 C   0  0  0  0  0  0  0  0  0  0  0  0
   12.1300   32.5920   25.0520 C   0  0  0  0  0  0  0  0  0  0  0  0
   10.6560   32.8350   25.3890 C   0  0  0  0  0  0  0  0  0  0  0  0
   10.4700   33.3900   26.8000 C   0  0  0  0  0  0  0  0  0  0  0  0
   10.6450   34.8820   26.8640 C   0  0  0  0  0  0  0  0  0  0  0  0
   10.0240   35.7070   26.2160 O   0  0  0  0  0  0  0  0  0  0  0  0
   11.5740   35.2680   27.7570 O   0  0  0  0  0  0  0  0  0  0  0  0
    8.3572   32.3690   17.1900 H   0  0  0  0  0  0  0  0  0  0  0  0
    9.4330   31.8930   15.8324 H   0  0  0  0  0  0  0  0  0  0  0  0
    7.7094   31.3871   15.8324 H   0  0  0  0  0  0  0  0  0  0  0  0
    9.6993   29.7501   16.6030 H   0  0  0  0  0  0  0  0  0  0  0  0
    9.3686   30.6049   18.1840 H   0  0  0  0  0  0  0  0  0  0  0  0
    8.0782   28.3448   17.2722 H   0  0  0  0  0  0  0  0  0  0  0  0
    7.4841   29.5254   18.5315 H   0  0  0  0  0  0  0  0  0  0  0  0
    6.8195   30.4703   15.8806 H   0  0  0  0  0  0  0  0  0  0  0  0
    6.2125   28.7840   16.1272 H   0  0  0  0  0  0  0  0  0  0  0  0
    5.1489   31.2539   17.1458 H   0  0  0  0  0  0  0  0  0  0  0  0
    4.5538   29.5409   17.3635 H   0  0  0  0  0  0  0  0  0  0  0  0
    5.2353   29.4357   19.4652 H   0  0  0  0  0  0  0  0  0  0  0  0
    6.8269   30.2668   19.0430 H   0  0  0  0  0  0  0  0  0  0  0  0
    5.0650   32.3275   18.9543 H   0  0  0  0  0  0  0  0  0  0  0  0
    4.4331   31.2736   20.3308 H   0  0  0  0  0  0  0  0  0  0  0  0
    5.9900   33.1684   20.9628 H   0  0  0  0  0  0  0  0  0  0  0  0
    6.3785   31.4822   21.5470 H   0  0  0  0  0  0  0  0  0  0  0  0
    7.7561   31.6577   19.1694 H   0  0  0  0  0  0  0  0  0  0  0  0
    7.9201   33.3245   19.9161 H   0  0  0  0  0  0  0  0  0  0  0  0
    8.9363   32.4722   21.8532 H   0  0  0  0  0  0  0  0  0  0  0  0
    8.5407   30.7491   21.3465 H   0  0  0  0  0  0  0  0  0  0  0  0
   10.1784   30.7606   19.6599 H   0  0  0  0  0  0  0  0  0  0  0  0
   10.4484   32.5505   19.8545 H   0  0  0  0  0  0  0  0  0  0  0  0
   11.3795   30.2602   21.5756 H   0  0  0  0  0  0  0  0  0  0  0  0
   12.2649   31.7292   20.9463 H   0  0  0  0  0  0  0  0  0  0  0  0
   10.7044   33.0584   22.4999 H   0  0  0  0  0  0  0  0  0  0  0  0
   10.4604   31.4149   23.3060 H   0  0  0  0  0  0  0  0  0  0  0  0
   12.9666   31.3354   23.5313 H   0  0  0  0  0  0  0  0  0  0  0  0
   12.8903   33.1409   23.1567 H   0  0  0  0  0  0  0  0  0  0  0  0
   12.4915   31.7502   25.6609 H   0  0  0  0  0  0  0  0  0  0  0  0
   12.6680   33.5268   25.2679 H   0  0  0  0  0  0  0  0  0  0  0  0
   10.2419   33.5550   24.6678 H   0  0  0  0  0  0  0  0  0  0  0  0
   10.1337   31.8684   25.3350 H   0  0  0  0  0  0  0  0  0  0  0  0
    9.4564   33.1393   27.1461 H   0  0  0  0  0  0  0  0  0  0  0  0
   11.2417   32.9370   27.4398 H   0  0  0  0  0  0  0  0  0  0  0  0
  1  2  1  0
  2  3  1  0
  3  4  1  0
  4  5  1  0
  5  6  1  0
  6  7  1  0
  7  8  1  0
  8  9  1  0
  9 10  1  0
 10 11  1  0
 11 12  1  0
 12 13  1  0
 13 14  1  0
 14 15  1  0
 15 16  1  0
 16 17  1  0
 17 18  1  0
 18 19  2  0
 18 20  1  0
  1 21  1  0
  1 22  1  0
  1 23  1  0
  2 24  1  0
  2 25  1  0
  3 26  1  0
  3 27  1  0
  4 28  1  0
  4 29  1  0
  5 30  1  0
  5 31  1  0
  6 32  1  0
  6 33  1  0
  7 34  1  0
  7 35  1  0
  8 36  1  0
  8 37  1  0
  9 38  1  0
  9 39  1  0
 10 40  1  0
 10 41  1  0
 11 42  1  0
 11 43  1  0
 12 44  1  0
 12 45  1  0
 13 46  1  0
 13 47  1  0
 14 48  1  0
 14 49  1  0
 15 50  1  0
 15 51  1  0
 16 52  1  0
 16 53  1  0
 17 54  1  0
 17 55  1  0
M  CHG  1  20  -1
M  END
>  <meeko>  (11) 
{"is_sidechain": [false], "free_energy": -5.625, "intermolecular_energy": -11.464, "internal_energy": -1.565}

$$$$
stearate_Clobe_run02
     RDKit          3D

 55 54  0  0  0  0  0  0  0  0999 V2000
    8.1950   28.9510   17.1910 C   0  0  0  0  0  0  0  0  0  0  0  0
    7.0660   29.9680   17.2730 C   0  0  0  0  0  0  0  0  0  0  0  0
    6.7010   30.3620   18.7070 C   0  0  0  0  0  0  0  0  0  0  0  0
    6.5360   31.8710   18.8970 C   0  0  0  0  0  0  0  0  0  0  0  0
    6.7500   32.6220   17.5800 C   0  0  0  0  0  0  0  0  0  0  0  0
    8.0400   33.4480   17.5530 C   0  0  0  0  0  0  0  0  0  0  0  0
    9.1240   32.9560   16.5870 C   0  0  0  0  0  0  0  0  0  0  0  0
   10.5120   32.7420   17.1980 C   0  0  0  0  0  0  0  0  0  0  0  0
   10.6030   31.5000   18.0820 C   0  0  0  0  0  0  0  0  0  0  0  0
   11.0350   31.7810   19.5260 C   0  0  0  0  0  0  0  0  0  0  0  0
    9.8940   31.8200   20.5510 C   0  0  0  0  0  0  0  0  0  0  0  0
   10.3210   31.3110   21.9310 C   0  0  0  0  0  0  0  0  0  0  0  0
   11.7030   31.8110   22.3660 C   0  0  0  0  0  0  0  0  0  0  0  0
   11.8540   32.1630   23.8490 C   0  0  0  0  0  0  0  0  0  0  0  0
   10.5600   32.5290   24.5840 C   0  0  0  0  0  0  0  0  0  0  0  0
   10.7920   33.2660   25.9060 C   0  0  0  0  0  0  0  0  0  0  0  0
   12.2680   33.5790   26.1410 C   0  0  0  0  0  0  0  0  0  0  0  0
   12.5120   34.2740   27.4530 C   0  0  0  0  0  0  0  0  0  0  0  0
   12.2900   33.8150   28.5610 O   0  0  0  0  0  0  0  0  0  0  0  0
   13.0450   35.5000   27.3110 O   0  0  0  0  0  0  0  0  0  0  0  0
    8.5086   28.6685   18.2068 H   0  0  0  0  0  0  0  0  0  0  0  0
    7.8452   28.0573   16.6534 H   0  0  0  0  0  0  0  0  0  0  0  0
    9.0474   29.3920   16.6534 H   0  0  0  0  0  0  0  0  0  0  0  0
    7.3738   30.8742   16.7307 H   0  0  0  0  0  0  0  0  0  0  0  0
    6.1752   29.4986   16.8300 H   0  0  0  0  0  0  0  0  0  0  0  0
    5.7534   29.8710   18.9735 H   0  0  0  0  0  0  0  0  0  0  0  0
    7.5307   30.0411   19.3541 H   0  0  0  0  0  0  0  0  0  0  0  0
    5.5207   32.0771   19.2666 H   0  0  0  0  0  0  0  0  0  0  0  0
    7.2897   32.2153   19.6205 H   0  0  0  0  0  0  0  0  0  0  0  0
    6.7892   31.8874   16.7622 H   0  0  0  0  0  0  0  0  0  0  0  0
    5.9118   33.3253   17.4675 H   0  0  0  0  0  0  0  0  0  0  0  0
    7.7763   34.4775   17.2692 H   0  0  0  0  0  0  0  0  0  0  0  0
    8.4735   33.3603   18.5602 H   0  0  0  0  0  0  0  0  0  0  0  0
    8.7896   31.9972   16.1641 H   0  0  0  0  0  0  0  0  0  0  0  0
    9.2453   33.7552   15.8409 H   0  0  0  0  0  0  0  0  0  0  0  0
   11.2408   32.6416   16.3802 H   0  0  0  0  0  0  0  0  0  0  0  0
   10.7213   33.6114   17.8386 H   0  0  0  0  0  0  0  0  0  0  0  0
    9.6128   31.0214   18.1060 H   0  0  0  0  0  0  0  0  0  0  0  0
   11.3793   30.8571   17.6414 H   0  0  0  0  0  0  0  0  0  0  0  0
   11.7396   30.9930   19.8303 H   0  0  0  0  0  0  0  0  0  0  0  0
   11.4782   32.7877   19.5227 H   0  0  0  0  0  0  0  0  0  0  0  0
    9.5464   32.8588   20.6512 H   0  0  0  0  0  0  0  0  0  0  0  0
    9.0960   31.1573   20.1849 H   0  0  0  0  0  0  0  0  0  0  0  0
    9.5800   31.6478   22.6710 H   0  0  0  0  0  0  0  0  0  0  0  0
   10.3786   30.2143   21.8679 H   0  0  0  0  0  0  0  0  0  0  0  0
   12.4349   31.0242   22.1307 H   0  0  0  0  0  0  0  0  0  0  0  0
   11.8628   32.7526   21.8202 H   0  0  0  0  0  0  0  0  0  0  0  0
   12.2971   31.2945   24.3583 H   0  0  0  0  0  0  0  0  0  0  0  0
   12.4797   33.0672   23.8786 H   0  0  0  0  0  0  0  0  0  0  0  0
    9.9580   33.1743   23.9274 H   0  0  0  0  0  0  0  0  0  0  0  0
   10.0495   31.5853   24.8266 H   0  0  0  0  0  0  0  0  0  0  0  0
   10.2281   34.2103   25.8888 H   0  0  0  0  0  0  0  0  0  0  0  0
   10.4518   32.6111   26.7217 H   0  0  0  0  0  0  0  0  0  0  0  0
   12.8337   32.6356   26.1319 H   0  0  0  0  0  0  0  0  0  0  0  0
   12.5957   34.2573   25.3395 H   0  0  0  0  0  0  0  0  0  0  0  0
  1  2  1  0
  2  3  1  0
  3  4  1  0
  4  5  1  0
  5  6  1  0
  6  7  1  0
  7  8  1  0
  8  9  1  0
  9 10  1  0
 10 11  1  0
 11 12  1  0
 12 13  1  0
 13 14  1  0
 14 15  1  0
 15 16  1  0
 16 17  1  0
 17 18  1  0
 18 19  2  0
 18 20  1  0
  1 21  1  0
  1 22  1  0
  1 23  1  0
  2 24  1  0
  2 25  1  0
  3 26  1  0
  3 27  1  0
  4 28  1  0
  4 29  1  0
  5 30  1  0
  5 31  1  0
  6 32  1  0
  6 33  1  0
  7 34  1  0
  7 35  1  0
  8 36  1  0
  8 37  1  0
  9 38  1  0
  9 39  1  0
 10 40  1  0
 10 41  1  0
 11 42  1  0
 11 43  1  0
 12 44  1  0
 12 45  1  0
 13 46  1  0
 13 47  1  0
 14 48  1  0
 14 49  1  0
 15 50  1  0
 15 51  1  0
 16 52  1  0
 16 53  1  0
 17 54  1  0
 17 55  1  0
M  CHG  1  20  -1
M  END
>  <meeko>  (12) 
{"is_sidechain": [false], "free_energy": -5.622, "intermolecular_energy": -11.254, "internal_energy": -1.769}

$$$$
stearate_Clobe_run02
     RDKit          3D

 55 54  0  0  0  0  0  0  0  0999 V2000
   11.4010   34.1030   29.2490 C   0  0  0  0  0  0  0  0  0  0  0  0
   12.0450   33.2520   28.1650 C   0  0  0  0  0  0  0  0  0  0  0  0
   12.3550   34.0270   26.8820 C   0  0  0  0  0  0  0  0  0  0  0  0
   12.2100   33.1820   25.6140 C   0  0  0  0  0  0  0  0  0  0  0  0
   10.7450   32.8240   25.3520 C   0  0  0  0  0  0  0  0  0  0  0  0
   10.4610   32.4560   23.8920 C   0  0  0  0  0  0  0  0  0  0  0  0
   11.6940   32.2030   23.0180 C   0  0  0  0  0  0  0  0  0  0  0  0
   11.4390   31.4510   21.7080 C   0  0  0  0  0  0  0  0  0  0  0  0
    9.9580   31.3400   21.3490 C   0  0  0  0  0  0  0  0  0  0  0  0
    9.6570   31.4890   19.8520 C   0  0  0  0  0  0  0  0  0  0  0  0
   10.8900   31.6680   18.9560 C   0  0  0  0  0  0  0  0  0  0  0  0
   10.5980   32.5080   17.7090 C   0  0  0  0  0  0  0  0  0  0  0  0
    9.2470   33.2290   17.7620 C   0  0  0  0  0  0  0  0  0  0  0  0
    8.1330   32.6320   16.8960 C   0  0  0  0  0  0  0  0  0  0  0  0
    8.5470   31.4800   15.9750 C   0  0  0  0  0  0  0  0  0  0  0  0
    8.1650   30.0970   16.5120 C   0  0  0  0  0  0  0  0  0  0  0  0
    6.6680   29.9790   16.7890 C   0  0  0  0  0  0  0  0  0  0  0  0
    6.3640   29.7400   18.2430 C   0  0  0  0  0  0  0  0  0  0  0  0
    7.0840   29.1670   19.0430 O   0  0  0  0  0  0  0  0  0  0  0  0
    5.1820   30.2550   18.6290 O   0  0  0  0  0  0  0  0  0  0  0  0
   11.6917   33.7188   30.2379 H   0  0  0  0  0  0  0  0  0  0  0  0
   11.7390   35.1448   29.1465 H   0  0  0  0  0  0  0  0  0  0  0  0
   10.3066   34.0608   29.1465 H   0  0  0  0  0  0  0  0  0  0  0  0
   12.9860   32.8405   28.5589 H   0  0  0  0  0  0  0  0  0  0  0  0
   11.3231   32.4652   27.9006 H   0  0  0  0  0  0  0  0  0  0  0  0
   11.6640   34.8801   26.8139 H   0  0  0  0  0  0  0  0  0  0  0  0
   13.4055   34.3480   26.9411 H   0  0  0  0  0  0  0  0  0  0  0  0
   12.5991   33.7513   24.7570 H   0  0  0  0  0  0  0  0  0  0  0  0
   12.7775   32.2496   25.7500 H   0  0  0  0  0  0  0  0  0  0  0  0
   10.4766   31.9664   25.9864 H   0  0  0  0  0  0  0  0  0  0  0  0
   10.1456   33.7165   25.5847 H   0  0  0  0  0  0  0  0  0  0  0  0
    9.8498   31.5414   23.8868 H   0  0  0  0  0  0  0  0  0  0  0  0
    9.9583   33.3313   23.4548 H   0  0  0  0  0  0  0  0  0  0  0  0
   12.1357   33.1786   22.7668 H   0  0  0  0  0  0  0  0  0  0  0  0
   12.3535   31.5533   23.6122 H   0  0  0  0  0  0  0  0  0  0  0  0
   11.9557   31.9821   20.8951 H   0  0  0  0  0  0  0  0  0  0  0  0
   11.8175   30.4270   21.8430 H   0  0  0  0  0  0  0  0  0  0  0  0
    9.5975   30.3536   21.6761 H   0  0  0  0  0  0  0  0  0  0  0  0
    9.4482   32.1722   21.8566 H   0  0  0  0  0  0  0  0  0  0  0  0
    9.1224   30.5867   19.5202 H   0  0  0  0  0  0  0  0  0  0  0  0
    9.0657   32.4107   19.7481 H   0  0  0  0  0  0  0  0  0  0  0  0
   11.6791   32.1658   19.5387 H   0  0  0  0  0  0  0  0  0  0  0  0
   11.2026   30.6691   18.6178 H   0  0  0  0  0  0  0  0  0  0  0  0
   11.3916   33.2623   17.6033 H   0  0  0  0  0  0  0  0  0  0  0  0
   10.5634   31.8172   16.8536 H   0  0  0  0  0  0  0  0  0  0  0  0
    8.9021   33.2213   18.8065 H   0  0  0  0  0  0  0  0  0  0  0  0
    9.4313   34.2347   17.3564 H   0  0  0  0  0  0  0  0  0  0  0  0
    7.3460   32.2599   17.5684 H   0  0  0  0  0  0  0  0  0  0  0  0
    7.8064   33.4438   16.2294 H   0  0  0  0  0  0  0  0  0  0  0  0
    8.0580   31.6215   14.9999 H   0  0  0  0  0  0  0  0  0  0  0  0
    9.6442   31.5051   15.9007 H   0  0  0  0  0  0  0  0  0  0  0  0
    8.4486   29.3376   15.7685 H   0  0  0  0  0  0  0  0  0  0  0  0
    8.6973   29.9450   17.4626 H   0  0  0  0  0  0  0  0  0  0  0  0
    6.1774   30.9123   16.4756 H   0  0  0  0  0  0  0  0  0  0  0  0
    6.2927   29.1129   16.2242 H   0  0  0  0  0  0  0  0  0  0  0  0
  1  2  1  0
  2  3  1  0
  3  4  1  0
  4  5  1  0
  5  6  1  0
  6  7  1  0
  7  8  1  0
  8  9  1  0
  9 10  1  0
 10 11  1  0
 11 12  1  0
 12 13  1  0
 13 14  1  0
 14 15  1  0
 15 16  1  0
 16 17  1  0
 17 18  1  0
 18 19  2  0
 18 20  1  0
  1 21  1  0
  1 22  1  0
  1 23  1  0
  2 24  1  0
  2 25  1  0
  3 26  1  0
  3 27  1  0
  4 28  1  0
  4 29  1  0
  5 30  1  0
  5 31  1  0
  6 32  1  0
  6 33  1  0
  7 34  1  0
  7 35  1  0
  8 36  1  0
  8 37  1  0
  9 38  1  0
  9 39  1  0
 10 40  1  0
 10 41  1  0
 11 42  1  0
 11 43  1  0
 12 44  1  0
 12 45  1  0
 13 46  1  0
 13 47  1  0
 14 48  1  0
 14 49  1  0
 15 50  1  0
 15 51  1  0
 16 52  1  0
 16 53  1  0
 17 54  1  0
 17 55  1  0
M  CHG  1  20  -1
M  END
>  <meeko>  (13) 
{"is_sidechain": [false], "free_energy": -5.61, "intermolecular_energy": -11.75, "internal_energy": -1.249}

$$$$
stearate_Clobe_run02
     RDKit          3D

 55 54  0  0  0  0  0  0  0  0999 V2000
   13.8580   36.2540   28.6290 C   0  0  0  0  0  0  0  0  0  0  0  0
   14.1300   35.4210   29.8740 C   0  0  0  0  0  0  0  0  0  0  0  0
   13.1850   34.2270   30.0290 C   0  0  0  0  0  0  0  0  0  0  0  0
   12.0810   34.4590   31.0640 C   0  0  0  0  0  0  0  0  0  0  0  0
   10.6930   34.3410   30.4270 C   0  0  0  0  0  0  0  0  0  0  0  0
   10.7360   34.0020   28.9340 C   0  0  0  0  0  0  0  0  0  0  0  0
   10.1840   35.0770   27.9920 C   0  0  0  0  0  0  0  0  0  0  0  0
   10.8760   35.1870   26.6290 C   0  0  0  0  0  0  0  0  0  0  0  0
   11.8800   34.0660   26.3650 C   0  0  0  0  0  0  0  0  0  0  0  0
   11.3360   32.9180   25.5070 C   0  0  0  0  0  0  0  0  0  0  0  0
   12.3810   32.1990   24.6450 C   0  0  0  0  0  0  0  0  0  0  0  0
   12.0030   32.1660   23.1610 C   0  0  0  0  0  0  0  0  0  0  0  0
   10.5030   32.3550   22.9090 C   0  0  0  0  0  0  0  0  0  0  0  0
    9.9520   31.7190   21.6290 C   0  0  0  0  0  0  0  0  0  0  0  0
   10.9550   31.5400   20.4850 C   0  0  0  0  0  0  0  0  0  0  0  0
   10.3800   31.8720   19.1050 C   0  0  0  0  0  0  0  0  0  0  0  0
    8.8530   31.8620   19.0980 C   0  0  0  0  0  0  0  0  0  0  0  0
    8.2840   30.5160   18.7420 C   0  0  0  0  0  0  0  0  0  0  0  0
    7.2380   30.0460   19.1570 O   0  0  0  0  0  0  0  0  0  0  0  0
    9.0430   29.8360   17.8640 O   0  0  0  0  0  0  0  0  0  0  0  0
   13.5292   37.2608   28.9261 H   0  0  0  0  0  0  0  0  0  0  0  0
   14.7779   36.3303   28.0307 H   0  0  0  0  0  0  0  0  0  0  0  0
   13.0703   35.7727   28.0307 H   0  0  0  0  0  0  0  0  0  0  0  0
   15.1619   35.0436   29.8217 H   0  0  0  0  0  0  0  0  0  0  0  0
   13.9685   36.0760   30.7428 H   0  0  0  0  0  0  0  0  0  0  0  0
   12.7142   34.0257   29.0555 H   0  0  0  0  0  0  0  0  0  0  0  0
   13.7885   33.3774   30.3811 H   0  0  0  0  0  0  0  0  0  0  0  0
   12.1744   33.7087   31.8630 H   0  0  0  0  0  0  0  0  0  0  0  0
   12.1927   35.4745   31.4717 H   0  0  0  0  0  0  0  0  0  0  0  0
   10.1361   33.5486   30.9486 H   0  0  0  0  0  0  0  0  0  0  0  0
   10.2069   35.3230   30.5232 H   0  0  0  0  0  0  0  0  0  0  0  0
   11.7852   33.8184   28.6593 H   0  0  0  0  0  0  0  0  0  0  0  0
   10.0816   33.1271   28.8064 H   0  0  0  0  0  0  0  0  0  0  0  0
    9.1210   34.8568   27.8143 H   0  0  0  0  0  0  0  0  0  0  0  0
   10.3629   36.0378   28.4969 H   0  0  0  0  0  0  0  0  0  0  0  0
   10.1061   35.1574   25.8439 H   0  0  0  0  0  0  0  0  0  0  0  0
   11.4376   36.1328   26.6258 H   0  0  0  0  0  0  0  0  0  0  0  0
   12.7505   34.4981   25.8497 H   0  0  0  0  0  0  0  0  0  0  0  0
   12.1326   33.6336   27.3444 H   0  0  0  0  0  0  0  0  0  0  0  0
   10.8801   32.1763   26.1794 H   0  0  0  0  0  0  0  0  0  0  0  0
   10.6201   33.3718   24.8059 H   0  0  0  0  0  0  0  0  0  0  0  0
   13.3437   32.7205   24.7513 H   0  0  0  0  0  0  0  0  0  0  0  0
   12.4409   31.1580   24.9954 H   0  0  0  0  0  0  0  0  0  0  0  0
   12.5471   32.9708   22.6449 H   0  0  0  0  0  0  0  0  0  0  0  0
   12.2726   31.1699   22.7800 H   0  0  0  0  0  0  0  0  0  0  0  0
    9.9610   31.9196   23.7615 H   0  0  0  0  0  0  0  0  0  0  0  0
   10.3566   33.4386   22.7887 H   0  0  0  0  0  0  0  0  0  0  0  0
    9.5570   30.7259   21.8892 H   0  0  0  0  0  0  0  0  0  0  0  0
    9.1925   32.4196   21.2518 H   0  0  0  0  0  0  0  0  0  0  0  0
   11.8152   32.2000   20.6708 H   0  0  0  0  0  0  0  0  0  0  0  0
   11.2376   30.4770   20.4684 H   0  0  0  0  0  0  0  0  0  0  0  0
   10.7290   32.8718   18.8071 H   0  0  0  0  0  0  0  0  0  0  0  0
   10.7257   31.1007   18.4010 H   0  0  0  0  0  0  0  0  0  0  0  0
    8.4945   32.1421   20.0995 H   0  0  0  0  0  0  0  0  0  0  0  0
    8.5191   32.5775   18.3321 H   0  0  0  0  0  0  0  0  0  0  0  0
  1  2  1  0
  2  3  1  0
  3  4  1  0
  4  5  1  0
  5  6  1  0
  6  7  1  0
  7  8  1  0
  8  9  1  0
  9 10  1  0
 10 11  1  0
 11 12  1  0
 12 13  1  0
 13 14  1  0
 14 15  1  0
 15 16  1  0
 16 17  1  0
 17 18  1  0
 18 19  2  0
 18 20  1  0
  1 21  1  0
  1 22  1  0
  1 23  1  0
  2 24  1  0
  2 25  1  0
  3 26  1  0
  3 27  1  0
  4 28  1  0
  4 29  1  0
  5 30  1  0
  5 31  1  0
  6 32  1  0
  6 33  1  0
  7 34  1  0
  7 35  1  0
  8 36  1  0
  8 37  1  0
  9 38  1  0
  9 39  1  0
 10 40  1  0
 10 41  1  0
 11 42  1  0
 11 43  1  0
 12 44  1  0
 12 45  1  0
 13 46  1  0
 13 47  1  0
 14 48  1  0
 14 49  1  0
 15 50  1  0
 15 51  1  0
 16 52  1  0
 16 53  1  0
 17 54  1  0
 17 55  1  0
M  CHG  1  20  -1
M  END
>  <meeko>  (14) 
{"is_sidechain": [false], "free_energy": -5.57, "intermolecular_energy": -11.492, "internal_energy": -1.431}

$$$$
stearate_Clobe_run02
     RDKit          3D

 55 54  0  0  0  0  0  0  0  0999 V2000
    7.1890   30.4790   18.5330 C   0  0  0  0  0  0  0  0  0  0  0  0
    6.7260   31.9250   18.6260 C   0  0  0  0  0  0  0  0  0  0  0  0
    7.2530   32.8100   17.4930 C   0  0  0  0  0  0  0  0  0  0  0  0
    8.2260   32.0840   16.5600 C   0  0  0  0  0  0  0  0  0  0  0  0
    9.4000   32.9870   16.1760 C   0  0  0  0  0  0  0  0  0  0  0  0
   10.5480   32.9560   17.1910 C   0  0  0  0  0  0  0  0  0  0  0  0
   10.7070   31.6500   17.9760 C   0  0  0  0  0  0  0  0  0  0  0  0
   11.2050   31.7960   19.4170 C   0  0  0  0  0  0  0  0  0  0  0  0
   10.0830   31.7740   20.4530 C   0  0  0  0  0  0  0  0  0  0  0  0
   10.4850   31.1810   21.8090 C   0  0  0  0  0  0  0  0  0  0  0  0
   10.6610   32.2030   22.9390 C   0  0  0  0  0  0  0  0  0  0  0  0
   12.0570   32.1570   23.5670 C   0  0  0  0  0  0  0  0  0  0  0  0
   12.1000   32.6990   25.0000 C   0  0  0  0  0  0  0  0  0  0  0  0
   10.7650   33.1820   25.5760 C   0  0  0  0  0  0  0  0  0  0  0  0
   10.8470   34.3420   26.5730 C   0  0  0  0  0  0  0  0  0  0  0  0
   12.2360   34.9820   26.6570 C   0  0  0  0  0  0  0  0  0  0  0  0
   12.6870   35.1970   28.1000 C   0  0  0  0  0  0  0  0  0  0  0  0
   12.4910   33.9760   28.9560 C   0  0  0  0  0  0  0  0  0  0  0  0
   11.8090   33.9070   29.9640 O   0  0  0  0  0  0  0  0  0  0  0  0
   13.1420   32.8940   28.4920 O   0  0  0  0  0  0  0  0  0  0  0  0
    7.3199   30.0701   19.5457 H   0  0  0  0  0  0  0  0  0  0  0  0
    6.4356   29.8868   17.9930 H   0  0  0  0  0  0  0  0  0  0  0  0
    8.1463   30.4345   17.9930 H   0  0  0  0  0  0  0  0  0  0  0  0
    5.6265   31.9409   18.5973 H   0  0  0  0  0  0  0  0  0  0  0  0
    7.1252   32.3323   19.5666 H   0  0  0  0  0  0  0  0  0  0  0  0
    6.3972   33.1630   16.8988 H   0  0  0  0  0  0  0  0  0  0  0  0
    7.8053   33.6399   17.9579 H   0  0  0  0  0  0  0  0  0  0  0  0
    8.6129   31.1896   17.0702 H   0  0  0  0  0  0  0  0  0  0  0  0
    7.6868   31.8039   15.6431 H   0  0  0  0  0  0  0  0  0  0  0  0
    9.7880   32.6588   15.2004 H   0  0  0  0  0  0  0  0  0  0  0  0
    9.0202   34.0189   16.1461 H   0  0  0  0  0  0  0  0  0  0  0  0
   11.4858   33.1388   16.6459 H   0  0  0  0  0  0  0  0  0  0  0  0
   10.3080   33.7270   17.9380 H   0  0  0  0  0  0  0  0  0  0  0  0
    9.7263   31.1527   18.0064 H   0  0  0  0  0  0  0  0  0  0  0  0
   11.4828   31.0761   17.4480 H   0  0  0  0  0  0  0  0  0  0  0  0
   11.8949   30.9669   19.6329 H   0  0  0  0  0  0  0  0  0  0  0  0
   11.6965   32.7772   19.4923 H   0  0  0  0  0  0  0  0  0  0  0  0
    9.7450   32.8080   20.6162 H   0  0  0  0  0  0  0  0  0  0  0  0
    9.2937   31.1240   20.0475 H   0  0  0  0  0  0  0  0  0  0  0  0
    9.7055   30.4671   22.1134 H   0  0  0  0  0  0  0  0  0  0  0  0
   11.4706   30.7158   21.6601 H   0  0  0  0  0  0  0  0  0  0  0  0
   10.4918   33.2106   22.5314 H   0  0  0  0  0  0  0  0  0  0  0  0
    9.9345   31.9549   23.7268 H   0  0  0  0  0  0  0  0  0  0  0  0
   12.3990   31.1116   23.5796 H   0  0  0  0  0  0  0  0  0  0  0  0
   12.7078   32.8011   22.9574 H   0  0  0  0  0  0  0  0  0  0  0  0
   12.4773   31.8973   25.6518 H   0  0  0  0  0  0  0  0  0  0  0  0
   12.7454   33.5889   24.9611 H   0  0  0  0  0  0  0  0  0  0  0  0
   10.1322   33.5038   24.7358 H   0  0  0  0  0  0  0  0  0  0  0  0
   10.3599   32.3306   26.1426 H   0  0  0  0  0  0  0  0  0  0  0  0
   10.1261   35.1146   26.2675 H   0  0  0  0  0  0  0  0  0  0  0  0
   10.6217   33.9290   27.5673 H   0  0  0  0  0  0  0  0  0  0  0  0
   12.9600   34.3240   26.1541 H   0  0  0  0  0  0  0  0  0  0  0  0
   12.1835   35.9668   26.1698 H   0  0  0  0  0  0  0  0  0  0  0  0
   13.7553   35.4591   28.0997 H   0  0  0  0  0  0  0  0  0  0  0  0
   12.0711   36.0035   28.5246 H   0  0  0  0  0  0  0  0  0  0  0  0
  1  2  1  0
  2  3  1  0
  3  4  1  0
  4  5  1  0
  5  6  1  0
  6  7  1  0
  7  8  1  0
  8  9  1  0
  9 10  1  0
 10 11  1  0
 11 12  1  0
 12 13  1  0
 13 14  1  0
 14 15  1  0
 15 16  1  0
 16 17  1  0
 17 18  1  0
 18 19  2  0
 18 20  1  0
  1 21  1  0
  1 22  1  0
  1 23  1  0
  2 24  1  0
  2 25  1  0
  3 26  1  0
  3 27  1  0
  4 28  1  0
  4 29  1  0
  5 30  1  0
  5 31  1  0
  6 32  1  0
  6 33  1  0
  7 34  1  0
  7 35  1  0
  8 36  1  0
  8 37  1  0
  9 38  1  0
  9 39  1  0
 10 40  1  0
 10 41  1  0
 11 42  1  0
 11 43  1  0
 12 44  1  0
 12 45  1  0
 13 46  1  0
 13 47  1  0
 14 48  1  0
 14 49  1  0
 15 50  1  0
 15 51  1  0
 16 52  1  0
 16 53  1  0
 17 54  1  0
 17 55  1  0
M  CHG  1  20  -1
M  END
>  <meeko>  (15) 
{"is_sidechain": [false], "free_energy": -5.568, "intermolecular_energy": -11.468, "internal_energy": -1.45}

$$$$
stearate_Clobe_run02
     RDKit          3D

 55 54  0  0  0  0  0  0  0  0999 V2000
    5.9670   31.8060   19.9400 C   0  0  0  0  0  0  0  0  0  0  0  0
    5.2520   31.7350   18.5990 C   0  0  0  0  0  0  0  0  0  0  0  0
    5.1180   30.3110   18.0520 C   0  0  0  0  0  0  0  0  0  0  0  0
    6.1760   29.9630   17.0020 C   0  0  0  0  0  0  0  0  0  0  0  0
    7.4840   29.5200   17.6610 C   0  0  0  0  0  0  0  0  0  0  0  0
    8.7210   30.2190   17.0880 C   0  0  0  0  0  0  0  0  0  0  0  0
    8.5640   31.7160   16.7980 C   0  0  0  0  0  0  0  0  0  0  0  0
    9.1840   32.6620   17.8310 C   0  0  0  0  0  0  0  0  0  0  0  0
   10.6790   32.4370   18.0430 C   0  0  0  0  0  0  0  0  0  0  0  0
   11.0390   31.8090   19.3950 C   0  0  0  0  0  0  0  0  0  0  0  0
    9.9040   31.7940   20.4280 C   0  0  0  0  0  0  0  0  0  0  0  0
   10.3630   31.3050   21.8050 C   0  0  0  0  0  0  0  0  0  0  0  0
   11.4590   32.1760   22.4280 C   0  0  0  0  0  0  0  0  0  0  0  0
   11.5370   32.1650   23.9580 C   0  0  0  0  0  0  0  0  0  0  0  0
   10.3050   32.7030   24.6930 C   0  0  0  0  0  0  0  0  0  0  0  0
   10.6150   33.2530   26.0890 C   0  0  0  0  0  0  0  0  0  0  0  0
   11.9980   33.8950   26.1630 C   0  0  0  0  0  0  0  0  0  0  0  0
   12.5810   33.8570   27.5490 C   0  0  0  0  0  0  0  0  0  0  0  0
   12.8610   34.8240   28.2380 O   0  0  0  0  0  0  0  0  0  0  0  0
   12.7620   32.6080   28.0140 O   0  0  0  0  0  0  0  0  0  0  0  0
    5.2297   31.7328   20.7530 H   0  0  0  0  0  0  0  0  0  0  0  0
    6.6829   30.9745   20.0183 H   0  0  0  0  0  0  0  0  0  0  0  0
    6.5054   32.7620   20.0183 H   0  0  0  0  0  0  0  0  0  0  0  0
    4.2437   32.1579   18.7194 H   0  0  0  0  0  0  0  0  0  0  0  0
    5.8594   32.3022   17.8784 H   0  0  0  0  0  0  0  0  0  0  0  0
    5.2125   29.6048   18.8901 H   0  0  0  0  0  0  0  0  0  0  0  0
    4.1364   30.2422   17.5603 H   0  0  0  0  0  0  0  0  0  0  0  0
    5.7985   29.1464   16.3690 H   0  0  0  0  0  0  0  0  0  0  0  0
    6.3763   30.8604   16.3983 H   0  0  0  0  0  0  0  0  0  0  0  0
    7.4251   29.7419   18.7368 H   0  0  0  0  0  0  0  0  0  0  0  0
    7.5987   28.4438   17.4642 H   0  0  0  0  0  0  0  0  0  0  0  0
    9.5420   30.0989   17.8102 H   0  0  0  0  0  0  0  0  0  0  0  0
    8.9102   29.7432   16.1144 H   0  0  0  0  0  0  0  0  0  0  0  0
    9.0343   31.9228   15.8254 H   0  0  0  0  0  0  0  0  0  0  0  0
    7.4822   31.9139   16.8219 H   0  0  0  0  0  0  0  0  0  0  0  0
    9.0325   33.6969   17.4904 H   0  0  0  0  0  0  0  0  0  0  0  0
    8.6873   32.4620   18.7919 H   0  0  0  0  0  0  0  0  0  0  0  0
   11.0432   31.7715   17.2465 H   0  0  0  0  0  0  0  0  0  0  0  0
   11.1523   33.4297   18.0217 H   0  0  0  0  0  0  0  0  0  0  0  0
   11.3506   30.7694   19.2158 H   0  0  0  0  0  0  0  0  0  0  0  0
   11.8345   32.4369   19.8226 H   0  0  0  0  0  0  0  0  0  0  0  0
    9.5088   32.8154   20.5312 H   0  0  0  0  0  0  0  0  0  0  0  0
    9.1357   31.0946   20.0667 H   0  0  0  0  0  0  0  0  0  0  0  0
    9.4949   31.3014   22.4805 H   0  0  0  0  0  0  0  0  0  0  0  0
   10.7877   30.2997   21.6667 H   0  0  0  0  0  0  0  0  0  0  0  0
   12.4273   31.8278   22.0391 H   0  0  0  0  0  0  0  0  0  0  0  0
   11.2086   33.2107   22.1513 H   0  0  0  0  0  0  0  0  0  0  0  0
   11.6948   31.1252   24.2803 H   0  0  0  0  0  0  0  0  0  0  0  0
   12.3612   32.8449   24.2197 H   0  0  0  0  0  0  0  0  0  0  0  0
    9.8661   33.5117   24.0902 H   0  0  0  0  0  0  0  0  0  0  0  0
    9.6139   31.8576   24.8256 H   0  0  0  0  0  0  0  0  0  0  0  0
    9.8593   34.0094   26.3474 H   0  0  0  0  0  0  0  0  0  0  0  0
   10.5963   32.4100   26.7954 H   0  0  0  0  0  0  0  0  0  0  0  0
   12.6732   33.3561   25.4821 H   0  0  0  0  0  0  0  0  0  0  0  0
   11.8902   34.9515   25.8762 H   0  0  0  0  0  0  0  0  0  0  0  0
  1  2  1  0
  2  3  1  0
  3  4  1  0
  4  5  1  0
  5  6  1  0
  6  7  1  0
  7  8  1  0
  8  9  1  0
  9 10  1  0
 10 11  1  0
 11 12  1  0
 12 13  1  0
 13 14  1  0
 14 15  1  0
 15 16  1  0
 16 17  1  0
 17 18  1  0
 18 19  2  0
 18 20  1  0
  1 21  1  0
  1 22  1  0
  1 23  1  0
  2 24  1  0
  2 25  1  0
  3 26  1  0
  3 27  1  0
  4 28  1  0
  4 29  1  0
  5 30  1  0
  5 31  1  0
  6 32  1  0
  6 33  1  0
  7 34  1  0
  7 35  1  0
  8 36  1  0
  8 37  1  0
  9 38  1  0
  9 39  1  0
 10 40  1  0
 10 41  1  0
 11 42  1  0
 11 43  1  0
 12 44  1  0
 12 45  1  0
 13 46  1  0
 13 47  1  0
 14 48  1  0
 14 49  1  0
 15 50  1  0
 15 51  1  0
 16 52  1  0
 16 53  1  0
 17 54  1  0
 17 55  1  0
M  CHG  1  20  -1
M  END
>  <meeko>  (16) 
{"is_sidechain": [false], "free_energy": -5.562, "intermolecular_energy": -11.441, "internal_energy": -1.467}

$$$$
stearate_Clobe_run02
     RDKit          3D

 55 54  0  0  0  0  0  0  0  0999 V2000
   12.5730   35.1830   27.1930 C   0  0  0  0  0  0  0  0  0  0  0  0
   12.3000   33.9670   26.3200 C   0  0  0  0  0  0  0  0  0  0  0  0
   10.8200   33.5810   26.2560 C   0  0  0  0  0  0  0  0  0  0  0  0
   10.4610   32.7630   25.0130 C   0  0  0  0  0  0  0  0  0  0  0  0
   11.7180   32.2460   24.3090 C   0  0  0  0  0  0  0  0  0  0  0  0
   11.5470   32.0930   22.7940 C   0  0  0  0  0  0  0  0  0  0  0  0
   10.1020   32.1000   22.2840 C   0  0  0  0  0  0  0  0  0  0  0  0
    9.9190   31.7740   20.7980 C   0  0  0  0  0  0  0  0  0  0  0  0
    8.5030   31.3230   20.4450 C   0  0  0  0  0  0  0  0  0  0  0  0
    7.4810   32.4630   20.3530 C   0  0  0  0  0  0  0  0  0  0  0  0
    6.0840   32.1280   20.8930 C   0  0  0  0  0  0  0  0  0  0  0  0
    5.2590   31.2850   19.9160 C   0  0  0  0  0  0  0  0  0  0  0  0
    5.3530   31.7660   18.4640 C   0  0  0  0  0  0  0  0  0  0  0  0
    5.4440   30.6690   17.3980 C   0  0  0  0  0  0  0  0  0  0  0  0
    6.7320   29.8390   17.4010 C   0  0  0  0  0  0  0  0  0  0  0  0
    7.7830   30.3310   16.4020 C   0  0  0  0  0  0  0  0  0  0  0  0
    8.9530   31.0300   17.0920 C   0  0  0  0  0  0  0  0  0  0  0  0
    9.0310   32.4940   16.7590 C   0  0  0  0  0  0  0  0  0  0  0  0
    8.2270   33.3500   17.0870 O   0  0  0  0  0  0  0  0  0  0  0  0
   10.1290   32.8180   16.0520 O   0  0  0  0  0  0  0  0  0  0  0  0
   12.5084   34.8955   28.2528 H   0  0  0  0  0  0  0  0  0  0  0  0
   13.5803   35.5696   26.9787 H   0  0  0  0  0  0  0  0  0  0  0  0
   11.8276   35.9630   26.9787 H   0  0  0  0  0  0  0  0  0  0  0  0
   12.6471   34.1861   25.2995 H   0  0  0  0  0  0  0  0  0  0  0  0
   12.8364   33.1186   26.7700 H   0  0  0  0  0  0  0  0  0  0  0  0
   10.5755   32.9859   27.1482 H   0  0  0  0  0  0  0  0  0  0  0  0
   10.2413   34.5153   26.2096 H   0  0  0  0  0  0  0  0  0  0  0  0
    9.8403   31.9063   25.3142 H   0  0  0  0  0  0  0  0  0  0  0  0
    9.9127   33.4125   24.3148 H   0  0  0  0  0  0  0  0  0  0  0  0
   12.5392   32.9531   24.4976 H   0  0  0  0  0  0  0  0  0  0  0  0
   11.9295   31.2457   24.7148 H   0  0  0  0  0  0  0  0  0  0  0  0
   12.0808   32.9231   22.3082 H   0  0  0  0  0  0  0  0  0  0  0  0
   11.9475   31.0989   22.5461 H   0  0  0  0  0  0  0  0  0  0  0  0
    9.5352   31.3575   22.8649 H   0  0  0  0  0  0  0  0  0  0  0  0
    9.7451   33.1328   22.4100 H   0  0  0  0  0  0  0  0  0  0  0  0
   10.1541   32.6748   20.2120 H   0  0  0  0  0  0  0  0  0  0  0  0
   10.5937   30.9374   20.5640 H   0  0  0  0  0  0  0  0  0  0  0  0
    8.5371   30.8117   19.4716 H   0  0  0  0  0  0  0  0  0  0  0  0
    8.1691   30.6664   21.2619 H   0  0  0  0  0  0  0  0  0  0  0  0
    7.8715   33.3181   20.9243 H   0  0  0  0  0  0  0  0  0  0  0  0
    7.3532   32.6750   19.2812 H   0  0  0  0  0  0  0  0  0  0  0  0
    6.1951   31.5685   21.8335 H   0  0  0  0  0  0  0  0  0  0  0  0
    5.5501   33.0777   21.0452 H   0  0  0  0  0  0  0  0  0  0  0  0
    5.6183   30.2464   19.9628 H   0  0  0  0  0  0  0  0  0  0  0  0
    4.2056   31.3758   20.2196 H   0  0  0  0  0  0  0  0  0  0  0  0
    4.4583   32.3693   18.2507 H   0  0  0  0  0  0  0  0  0  0  0  0
    6.2985   32.3241   18.3969 H   0  0  0  0  0  0  0  0  0  0  0  0
    4.5992   29.9810   17.5493 H   0  0  0  0  0  0  0  0  0  0  0  0
    5.4287   31.1919   16.4303 H   0  0  0  0  0  0  0  0  0  0  0  0
    7.1675   29.8772   18.4104 H   0  0  0  0  0  0  0  0  0  0  0  0
    6.4568   28.8170   17.1013 H   0  0  0  0  0  0  0  0  0  0  0  0
    8.1681   29.4679   15.8392 H   0  0  0  0  0  0  0  0  0  0  0  0
    7.2997   31.0604   15.7354 H   0  0  0  0  0  0  0  0  0  0  0  0
    8.8352   30.9223   18.1804 H   0  0  0  0  0  0  0  0  0  0  0  0
    9.8801   30.5577   16.7349 H   0  0  0  0  0  0  0  0  0  0  0  0
  1  2  1  0
  2  3  1  0
  3  4  1  0
  4  5  1  0
  5  6  1  0
  6  7  1  0
  7  8  1  0
  8  9  1  0
  9 10  1  0
 10 11  1  0
 11 12  1  0
 12 13  1  0
 13 14  1  0
 14 15  1  0
 15 16  1  0
 16 17  1  0
 17 18  1  0
 18 19  2  0
 18 20  1  0
  1 21  1  0
  1 22  1  0
  1 23  1  0
  2 24  1  0
  2 25  1  0
  3 26  1  0
  3 27  1  0
  4 28  1  0
  4 29  1  0
  5 30  1  0
  5 31  1  0
  6 32  1  0
  6 33  1  0
  7 34  1  0
  7 35  1  0
  8 36  1  0
  8 37  1  0
  9 38  1  0
  9 39  1  0
 10 40  1  0
 10 41  1  0
 11 42  1  0
 11 43  1  0
 12 44  1  0
 12 45  1  0
 13 46  1  0
 13 47  1  0
 14 48  1  0
 14 49  1  0
 15 50  1  0
 15 51  1  0
 16 52  1  0
 16 53  1  0
 17 54  1  0
 17 55  1  0
M  CHG  1  20  -1
M  END
>  <meeko>  (17) 
{"is_sidechain": [false], "free_energy": -5.524, "intermolecular_energy": -11.318, "internal_energy": -1.516}

$$$$
stearate_Clobe_run02
     RDKit          3D

 55 54  0  0  0  0  0  0  0  0999 V2000
    8.1400   30.3020   16.3750 C   0  0  0  0  0  0  0  0  0  0  0  0
    6.8690   29.6380   16.8840 C   0  0  0  0  0  0  0  0  0  0  0  0
    5.8880   30.6160   17.5350 C   0  0  0  0  0  0  0  0  0  0  0  0
    5.8080   30.4700   19.0570 C   0  0  0  0  0  0  0  0  0  0  0  0
    6.2350   31.7610   19.7600 C   0  0  0  0  0  0  0  0  0  0  0  0
    7.6730   32.1810   19.4380 C   0  0  0  0  0  0  0  0  0  0  0  0
    8.7730   31.3720   20.1330 C   0  0  0  0  0  0  0  0  0  0  0  0
    9.6350   32.1450   21.1370 C   0  0  0  0  0  0  0  0  0  0  0  0
   10.4370   31.2420   22.0710 C   0  0  0  0  0  0  0  0  0  0  0  0
   11.7800   31.8310   22.5220 C   0  0  0  0  0  0  0  0  0  0  0  0
   11.8410   32.2560   23.9950 C   0  0  0  0  0  0  0  0  0  0  0  0
   10.4550   32.5190   24.5930 C   0  0  0  0  0  0  0  0  0  0  0  0
   10.4980   32.9770   26.0550 C   0  0  0  0  0  0  0  0  0  0  0  0
   11.0050   34.4020   26.2980 C   0  0  0  0  0  0  0  0  0  0  0  0
   12.4090   34.5180   26.9000 C   0  0  0  0  0  0  0  0  0  0  0  0
   12.6680   33.5380   28.0480 C   0  0  0  0  0  0  0  0  0  0  0  0
   12.7230   34.2380   29.4040 C   0  0  0  0  0  0  0  0  0  0  0  0
   13.9660   33.9010   30.1810 C   0  0  0  0  0  0  0  0  0  0  0  0
   14.4930   34.5970   31.0320 O   0  0  0  0  0  0  0  0  0  0  0  0
   14.4750   32.6950   29.8690 O   0  0  0  0  0  0  0  0  0  0  0  0
    8.7537   30.6226   17.2297 H   0  0  0  0  0  0  0  0  0  0  0  0
    8.7084   29.5856   15.7637 H   0  0  0  0  0  0  0  0  0  0  0  0
    7.8767   31.1777   15.7637 H   0  0  0  0  0  0  0  0  0  0  0  0
    6.3653   29.1532   16.0347 H   0  0  0  0  0  0  0  0  0  0  0  0
    7.1686   28.9166   17.6585 H   0  0  0  0  0  0  0  0  0  0  0  0
    6.2088   31.6414   17.2989 H   0  0  0  0  0  0  0  0  0  0  0  0
    4.8890   30.3915   17.1331 H   0  0  0  0  0  0  0  0  0  0  0  0
    4.7721   30.2327   19.3408 H   0  0  0  0  0  0  0  0  0  0  0  0
    6.4892   29.6634   19.3659 H   0  0  0  0  0  0  0  0  0  0  0  0
    5.5572   32.5690   19.4474 H   0  0  0  0  0  0  0  0  0  0  0  0
    6.1858   31.5733   20.8427 H   0  0  0  0  0  0  0  0  0  0  0  0
    7.8179   32.0850   18.3518 H   0  0  0  0  0  0  0  0  0  0  0  0
    7.7757   33.2102   19.8125 H   0  0  0  0  0  0  0  0  0  0  0  0
    8.2927   30.5408   20.6700 H   0  0  0  0  0  0  0  0  0  0  0  0
    9.4585   31.0516   19.3346 H   0  0  0  0  0  0  0  0  0  0  0  0
   10.3379   32.7793   20.5770 H   0  0  0  0  0  0  0  0  0  0  0  0
    8.9511   32.7350   21.7648 H   0  0  0  0  0  0  0  0  0  0  0  0
    9.8289   31.0463   22.9665 H   0  0  0  0  0  0  0  0  0  0  0  0
   10.6691   30.3291   21.5028 H   0  0  0  0  0  0  0  0  0  0  0  0
   12.5588   31.0727   22.3533 H   0  0  0  0  0  0  0  0  0  0  0  0
   11.9269   32.7476   21.9318 H   0  0  0  0  0  0  0  0  0  0  0  0
   12.3271   31.4557   24.5722 H   0  0  0  0  0  0  0  0  0  0  0  0
   12.4085   33.1969   24.0459 H   0  0  0  0  0  0  0  0  0  0  0  0
    9.9612   33.3009   23.9974 H   0  0  0  0  0  0  0  0  0  0  0  0
    9.9052   31.5666   24.5679 H   0  0  0  0  0  0  0  0  0  0  0  0
    9.4770   32.9096   26.4589 H   0  0  0  0  0  0  0  0  0  0  0  0
   11.2233   32.3156   26.5516 H   0  0  0  0  0  0  0  0  0  0  0  0
   11.0077   34.9283   25.3321 H   0  0  0  0  0  0  0  0  0  0  0  0
   10.3239   34.8377   27.0438 H   0  0  0  0  0  0  0  0  0  0  0  0
   13.1448   34.3249   26.1055 H   0  0  0  0  0  0  0  0  0  0  0  0
   12.4982   35.5323   27.3161 H   0  0  0  0  0  0  0  0  0  0  0  0
   11.8590   32.7929   28.0668 H   0  0  0  0  0  0  0  0  0  0  0  0
   13.6453   33.0644   27.8731 H   0  0  0  0  0  0  0  0  0  0  0  0
   12.6943   35.3254   29.2402 H   0  0  0  0  0  0  0  0  0  0  0  0
   11.8598   33.8924   29.9917 H   0  0  0  0  0  0  0  0  0  0  0  0
  1  2  1  0
  2  3  1  0
  3  4  1  0
  4  5  1  0
  5  6  1  0
  6  7  1  0
  7  8  1  0
  8  9  1  0
  9 10  1  0
 10 11  1  0
 11 12  1  0
 12 13  1  0
 13 14  1  0
 14 15  1  0
 15 16  1  0
 16 17  1  0
 17 18  1  0
 18 19  2  0
 18 20  1  0
  1 21  1  0
  1 22  1  0
  1 23  1  0
  2 24  1  0
  2 25  1  0
  3 26  1  0
  3 27  1  0
  4 28  1  0
  4 29  1  0
  5 30  1  0
  5 31  1  0
  6 32  1  0
  6 33  1  0
  7 34  1  0
  7 35  1  0
  8 36  1  0
  8 37  1  0
  9 38  1  0
  9 39  1  0
 10 40  1  0
 10 41  1  0
 11 42  1  0
 11 43  1  0
 12 44  1  0
 12 45  1  0
 13 46  1  0
 13 47  1  0
 14 48  1  0
 14 49  1  0
 15 50  1  0
 15 51  1  0
 16 52  1  0
 16 53  1  0
 17 54  1  0
 17 55  1  0
M  CHG  1  20  -1
M  END
>  <meeko>  (18) 
{"is_sidechain": [false], "free_energy": -5.518, "intermolecular_energy": -11.843, "internal_energy": -0.98}

$$$$
stearate_Clobe_run02
     RDKit          3D

 55 54  0  0  0  0  0  0  0  0999 V2000
    9.7070   36.0590   29.8390 C   0  0  0  0  0  0  0  0  0  0  0  0
   10.2790   34.8930   30.6320 C   0  0  0  0  0  0  0  0  0  0  0  0
   11.6410   35.1930   31.2640 C   0  0  0  0  0  0  0  0  0  0  0  0
   12.6690   34.0810   31.0430 C   0  0  0  0  0  0  0  0  0  0  0  0
   13.1380   34.0420   29.5860 C   0  0  0  0  0  0  0  0  0  0  0  0
   13.3850   35.4320   28.9890 C   0  0  0  0  0  0  0  0  0  0  0  0
   13.0670   35.5810   27.4980 C   0  0  0  0  0  0  0  0  0  0  0  0
   11.8200   34.8390   27.0060 C   0  0  0  0  0  0  0  0  0  0  0  0
   12.1340   33.5180   26.3060 C   0  0  0  0  0  0  0  0  0  0  0  0
   11.0300   33.0230   25.3640 C   0  0  0  0  0  0  0  0  0  0  0  0
   11.5090   32.1280   24.2140 C   0  0  0  0  0  0  0  0  0  0  0  0
   10.5950   32.2000   22.9870 C   0  0  0  0  0  0  0  0  0  0  0  0
   11.1400   31.4390   21.7740 C   0  0  0  0  0  0  0  0  0  0  0  0
   10.4550   31.7310   20.4350 C   0  0  0  0  0  0  0  0  0  0  0  0
    8.9260   31.6480   20.4340 C   0  0  0  0  0  0  0  0  0  0  0  0
    8.3100   31.6660   19.0320 C   0  0  0  0  0  0  0  0  0  0  0  0
    9.1430   30.8740   18.0260 C   0  0  0  0  0  0  0  0  0  0  0  0
    8.3590   29.7740   17.3630 C   0  0  0  0  0  0  0  0  0  0  0  0
    7.8600   28.8110   17.9200 O   0  0  0  0  0  0  0  0  0  0  0  0
    8.2200   29.9480   16.0360 O   0  0  0  0  0  0  0  0  0  0  0  0
    9.3311   36.8252   30.5331 H   0  0  0  0  0  0  0  0  0  0  0  0
   10.4945   36.4929   29.2054 H   0  0  0  0  0  0  0  0  0  0  0  0
    8.8818   35.7018   29.2054 H   0  0  0  0  0  0  0  0  0  0  0  0
    9.5715   34.6376   31.4347 H   0  0  0  0  0  0  0  0  0  0  0  0
   10.4263   34.0629   29.9255 H   0  0  0  0  0  0  0  0  0  0  0  0
   12.0324   36.1226   30.8251 H   0  0  0  0  0  0  0  0  0  0  0  0
   11.4843   35.2809   32.3492 H   0  0  0  0  0  0  0  0  0  0  0  0
   13.5369   34.2601   31.6946 H   0  0  0  0  0  0  0  0  0  0  0  0
   12.1963   33.1171   31.2827 H   0  0  0  0  0  0  0  0  0  0  0  0
   14.0760   33.4696   29.5368 H   0  0  0  0  0  0  0  0  0  0  0  0
   12.3343   33.5742   28.9984 H   0  0  0  0  0  0  0  0  0  0  0  0
   12.7629   36.1521   29.5408 H   0  0  0  0  0  0  0  0  0  0  0  0
   14.4661   35.6112   29.0842 H   0  0  0  0  0  0  0  0  0  0  0  0
   12.9278   36.6517   27.2877 H   0  0  0  0  0  0  0  0  0  0  0  0
   13.9152   35.1275   26.9643 H   0  0  0  0  0  0  0  0  0  0  0  0
   11.1751   34.6295   27.8721 H   0  0  0  0  0  0  0  0  0  0  0  0
   11.3277   35.4880   26.2668 H   0  0  0  0  0  0  0  0  0  0  0  0
   13.0543   33.6503   25.7182 H   0  0  0  0  0  0  0  0  0  0  0  0
   12.2358   32.7599   27.0965 H   0  0  0  0  0  0  0  0  0  0  0  0
   10.3037   32.4517   25.9607 H   0  0  0  0  0  0  0  0  0  0  0  0
   10.6017   33.9212   24.8952 H   0  0  0  0  0  0  0  0  0  0  0  0
   12.5198   32.4458   23.9187 H   0  0  0  0  0  0  0  0  0  0  0  0
   11.4978   31.0891   24.5754 H   0  0  0  0  0  0  0  0  0  0  0  0
    9.6174   31.7731   23.2554 H   0  0  0  0  0  0  0  0  0  0  0  0
   10.5226   33.2591   22.6989 H   0  0  0  0  0  0  0  0  0  0  0  0
   12.2055   31.6915   21.6691 H   0  0  0  0  0  0  0  0  0  0  0  0
   10.9477   30.3757   21.9800 H   0  0  0  0  0  0  0  0  0  0  0  0
   10.7375   32.7484   20.1267 H   0  0  0  0  0  0  0  0  0  0  0  0
   10.7964   30.9428   19.7478 H   0  0  0  0  0  0  0  0  0  0  0  0
    8.6285   30.7135   20.9322 H   0  0  0  0  0  0  0  0  0  0  0  0
    8.5550   32.5401   20.9599 H   0  0  0  0  0  0  0  0  0  0  0  0
    7.3028   31.2267   19.0819 H   0  0  0  0  0  0  0  0  0  0  0  0
    8.2741   32.7116   18.6921 H   0  0  0  0  0  0  0  0  0  0  0  0
    9.5075   31.5635   17.2503 H   0  0  0  0  0  0  0  0  0  0  0  0
    9.9729   30.4063   18.5761 H   0  0  0  0  0  0  0  0  0  0  0  0
  1  2  1  0
  2  3  1  0
  3  4  1  0
  4  5  1  0
  5  6  1  0
  6  7  1  0
  7  8  1  0
  8  9  1  0
  9 10  1  0
 10 11  1  0
 11 12  1  0
 12 13  1  0
 13 14  1  0
 14 15  1  0
 15 16  1  0
 16 17  1  0
 17 18  1  0
 18 19  2  0
 18 20  1  0
  1 21  1  0
  1 22  1  0
  1 23  1  0
  2 24  1  0
  2 25  1  0
  3 26  1  0
  3 27  1  0
  4 28  1  0
  4 29  1  0
  5 30  1  0
  5 31  1  0
  6 32  1  0
  6 33  1  0
  7 34  1  0
  7 35  1  0
  8 36  1  0
  8 37  1  0
  9 38  1  0
  9 39  1  0
 10 40  1  0
 10 41  1  0
 11 42  1  0
 11 43  1  0
 12 44  1  0
 12 45  1  0
 13 46  1  0
 13 47  1  0
 14 48  1  0
 14 49  1  0
 15 50  1  0
 15 51  1  0
 16 52  1  0
 16 53  1  0
 17 54  1  0
 17 55  1  0
M  CHG  1  20  -1
M  END
>  <meeko>  (19) 
{"is_sidechain": [false], "free_energy": -5.513, "intermolecular_energy": -11.836, "internal_energy": -0.977}

$$$$
stearate_Clobe_run02
     RDKit          3D

 55 54  0  0  0  0  0  0  0  0999 V2000
   14.2930   34.5950   30.4060 C   0  0  0  0  0  0  0  0  0  0  0  0
   13.0680   35.4610   30.1560 C   0  0  0  0  0  0  0  0  0  0  0  0
   13.2140   36.3920   28.9490 C   0  0  0  0  0  0  0  0  0  0  0  0
   13.1660   35.6570   27.6070 C   0  0  0  0  0  0  0  0  0  0  0  0
   11.8450   34.9040   27.4360 C   0  0  0  0  0  0  0  0  0  0  0  0
   11.7900   34.0530   26.1630 C   0  0  0  0  0  0  0  0  0  0  0  0
   10.5430   33.1770   26.0020 C   0  0  0  0  0  0  0  0  0  0  0  0
   10.2130   32.7460   24.5700 C   0  0  0  0  0  0  0  0  0  0  0  0
   11.4230   32.2210   23.7990 C   0  0  0  0  0  0  0  0  0  0  0  0
   11.1200   31.8020   22.3550 C   0  0  0  0  0  0  0  0  0  0  0  0
    9.7510   32.2450   21.8230 C   0  0  0  0  0  0  0  0  0  0  0  0
    9.3910   31.5800   20.4910 C   0  0  0  0  0  0  0  0  0  0  0  0
   10.4710   31.7420   19.4160 C   0  0  0  0  0  0  0  0  0  0  0  0
   10.0920   31.2720   18.0080 C   0  0  0  0  0  0  0  0  0  0  0  0
    8.5930   31.1100   17.7380 C   0  0  0  0  0  0  0  0  0  0  0  0
    8.1890   29.6840   17.3520 C   0  0  0  0  0  0  0  0  0  0  0  0
    6.7690   29.6170   16.7920 C   0  0  0  0  0  0  0  0  0  0  0  0
    5.7200   29.8730   17.8390 C   0  0  0  0  0  0  0  0  0  0  0  0
    5.7760   29.5360   19.0090 O   0  0  0  0  0  0  0  0  0  0  0  0
    4.6630   30.5620   17.3720 O   0  0  0  0  0  0  0  0  0  0  0  0
   14.4491   34.4846   31.4893 H   0  0  0  0  0  0  0  0  0  0  0  0
   14.1395   33.6036   29.9548 H   0  0  0  0  0  0  0  0  0  0  0  0
   15.1764   35.0704   29.9548 H   0  0  0  0  0  0  0  0  0  0  0  0
   12.2045   34.8015   29.9845 H   0  0  0  0  0  0  0  0  0  0  0  0
   12.9363   36.0988   31.0425 H   0  0  0  0  0  0  0  0  0  0  0  0
   12.3957   37.1267   28.9740 H   0  0  0  0  0  0  0  0  0  0  0  0
   14.2024   36.8690   29.0236 H   0  0  0  0  0  0  0  0  0  0  0  0
   13.2696   36.3894   26.7928 H   0  0  0  0  0  0  0  0  0  0  0  0
   13.9890   34.9277   27.5794 H   0  0  0  0  0  0  0  0  0  0  0  0
   11.7058   34.2426   28.3038 H   0  0  0  0  0  0  0  0  0  0  0  0
   11.0489   35.6589   27.3566 H   0  0  0  0  0  0  0  0  0  0  0  0
   11.8390   34.7329   25.2997 H   0  0  0  0  0  0  0  0  0  0  0  0
   12.6386   33.3565   26.2314 H   0  0  0  0  0  0  0  0  0  0  0  0
   10.6893   32.2675   26.6032 H   0  0  0  0  0  0  0  0  0  0  0  0
    9.6965   33.7981   26.3301 H   0  0  0  0  0  0  0  0  0  0  0  0
    9.4544   31.9505   24.6116 H   0  0  0  0  0  0  0  0  0  0  0  0
    9.8518   33.6384   24.0379 H   0  0  0  0  0  0  0  0  0  0  0  0
   12.1858   33.0132   23.7747 H   0  0  0  0  0  0  0  0  0  0  0  0
   11.7619   31.3159   24.3244 H   0  0  0  0  0  0  0  0  0  0  0  0
   11.8946   32.2347   21.7048 H   0  0  0  0  0  0  0  0  0  0  0  0
   11.1092   30.7021   22.3508 H   0  0  0  0  0  0  0  0  0  0  0  0
    8.9832   31.9831   22.5659 H   0  0  0  0  0  0  0  0  0  0  0  0
    9.7969   33.3305   21.6507 H   0  0  0  0  0  0  0  0  0  0  0  0
    9.2351   30.5057   20.6690 H   0  0  0  0  0  0  0  0  0  0  0  0
    8.4838   32.0764   20.1160 H   0  0  0  0  0  0  0  0  0  0  0  0
   10.7293   32.8096   19.3564 H   0  0  0  0  0  0  0  0  0  0  0  0
   11.3029   31.0949   19.7311 H   0  0  0  0  0  0  0  0  0  0  0  0
   10.4864   32.0061   17.2900 H   0  0  0  0  0  0  0  0  0  0  0  0
   10.5239   30.2657   17.9036 H   0  0  0  0  0  0  0  0  0  0  0  0
    8.0434   31.3927   18.6480 H   0  0  0  0  0  0  0  0  0  0  0  0
    8.3480   31.7569   16.8827 H   0  0  0  0  0  0  0  0  0  0  0  0
    8.8885   29.3121   16.5888 H   0  0  0  0  0  0  0  0  0  0  0  0
    8.2224   29.0661   18.2614 H   0  0  0  0  0  0  0  0  0  0  0  0
    6.6671   30.3730   15.9994 H   0  0  0  0  0  0  0  0  0  0  0  0
    6.6117   28.5992   16.4056 H   0  0  0  0  0  0  0  0  0  0  0  0
  1  2  1  0
  2  3  1  0
  3  4  1  0
  4  5  1  0
  5  6  1  0
  6  7  1  0
  7  8  1  0
  8  9  1  0
  9 10  1  0
 10 11  1  0
 11 12  1  0
 12 13  1  0
 13 14  1  0
 14 15  1  0
 15 16  1  0
 16 17  1  0
 17 18  1  0
 18 19  2  0
 18 20  1  0
  1 21  1  0
  1 22  1  0
  1 23  1  0
  2 24  1  0
  2 25  1  0
  3 26  1  0
  3 27  1  0
  4 28  1  0
  4 29  1  0
  5 30  1  0
  5 31  1  0
  6 32  1  0
  6 33  1  0
  7 34  1  0
  7 35  1  0
  8 36  1  0
  8 37  1  0
  9 38  1  0
  9 39  1  0
 10 40  1  0
 10 41  1  0
 11 42  1  0
 11 43  1  0
 12 44  1  0
 12 45  1  0
 13 46  1  0
 13 47  1  0
 14 48  1  0
 14 49  1  0
 15 50  1  0
 15 51  1  0
 16 52  1  0
 16 53  1  0
 17 54  1  0
 17 55  1  0
M  CHG  1  20  -1
M  END
>  <meeko>  (20) 
{"is_sidechain": [false], "free_energy": -5.49, "intermolecular_energy": -12.019, "internal_energy": -0.749}

$$$$
