stearate_Clobe_run01
     RDKit          3D

 55 54  0  0  0  0  0  0  0  0999 V2000
   10.7040   32.8610   17.8280 C   0  0  0  0  0  0  0  0  0  0  0  0
   10.0730   32.8380   16.4440 C   0  0  0  0  0  0  0  0  0  0  0  0
    8.5840   32.4830   16.4560 C   0  0  0  0  0  0  0  0  0  0  0  0
    8.3100   31.0100   16.1420 C   0  0  0  0  0  0  0  0  0  0  0  0
    8.2730   30.1700   17.4210 C   0  0  0  0  0  0  0  0  0  0  0  0
    6.9030   29.5410   17.6960 C   0  0  0  0  0  0  0  0  0  0  0  0
    5.6900   30.3850   17.2900 C   0  0  0  0  0  0  0  0  0  0  0  0
    5.2960   31.4970   18.2670 C   0  0  0  0  0  0  0  0  0  0  0  0
    5.2780   31.0460   19.7260 C   0  0  0  0  0  0  0  0  0  0  0  0
    6.1090   31.9250   20.6690 C   0  0  0  0  0  0  0  0  0  0  0  0
    5.3330   32.5300   21.8460 C   0  0  0  0  0  0  0  0  0  0  0  0
    6.2250   33.3490   22.7850 C   0  0  0  0  0  0  0  0  0  0  0  0
    7.5280   33.8210   22.1310 C   0  0  0  0  0  0  0  0  0  0  0  0
    8.8070   33.1190   22.5980 C   0  0  0  0  0  0  0  0  0  0  0  0
    9.5150   32.2530   21.5510 C   0  0  0  0  0  0  0  0  0  0  0  0
   10.9230   31.8170   21.9640 C   0  0  0  0  0  0  0  0  0  0  0  0
   11.1190   31.8560   23.4780 C   0  0  0  0  0  0  0  0  0  0  0  0
   12.5600   32.0330   23.8730 C   0  0  0  0  0  0  0  0  0  0  0  0
   13.5210   31.9780   23.1260 O   0  0  0  0  0  0  0  0  0  0  0  0
   12.7210   32.2960   25.1820 O   0  0  0  0  0  0  0  0  0  0  0  0
    9.9132   32.8322   18.5921 H   0  0  0  0  0  0  0  0  0  0  0  0
   11.3603   31.9862   17.9464 H   0  0  0  0  0  0  0  0  0  0  0  0
   11.2948   33.7813   17.9464 H   0  0  0  0  0  0  0  0  0  0  0  0
   10.1896   33.8340   15.9919 H   0  0  0  0  0  0  0  0  0  0  0  0
   10.5871   32.0547   15.8677 H   0  0  0  0  0  0  0  0  0  0  0  0
    8.1794   32.7084   17.4537 H   0  0  0  0  0  0  0  0  0  0  0  0
    8.1006   33.0794   15.6682 H   0  0  0  0  0  0  0  0  0  0  0  0
    7.3402   30.9266   15.6295 H   0  0  0  0  0  0  0  0  0  0  0  0
    9.1206   30.6335   15.5008 H   0  0  0  0  0  0  0  0  0  0  0  0
    9.0152   29.3633   17.3300 H   0  0  0  0  0  0  0  0  0  0  0  0
    8.4946   30.8458   18.2601 H   0  0  0  0  0  0  0  0  0  0  0  0
    6.8517   28.5895   17.1465 H   0  0  0  0  0  0  0  0  0  0  0  0
    6.8383   29.4297   18.7884 H   0  0  0  0  0  0  0  0  0  0  0  0
    5.9130   30.8517   16.3192 H   0  0  0  0  0  0  0  0  0  0  0  0
    4.8369   29.6910   17.2666 H   0  0  0  0  0  0  0  0  0  0  0  0
    6.0173   32.3213   18.1660 H   0  0  0  0  0  0  0  0  0  0  0  0
    4.2719   31.8060   18.0106 H   0  0  0  0  0  0  0  0  0  0  0  0
    4.2353   31.0548   20.0764 H   0  0  0  0  0  0  0  0  0  0  0  0
    5.7292   30.0431   19.7511 H   0  0  0  0  0  0  0  0  0  0  0  0
    6.9243   31.3102   21.0781 H   0  0  0  0  0  0  0  0  0  0  0  0
    6.4618   32.7742   20.0654 H   0  0  0  0  0  0  0  0  0  0  0  0
    4.5453   33.1864   21.4477 H   0  0  0  0  0  0  0  0  0  0  0  0
    4.9129   31.6975   22.4295 H   0  0  0  0  0  0  0  0  0  0  0  0
    5.6617   34.2334   23.1173 H   0  0  0  0  0  0  0  0  0  0  0  0
    6.5022   32.6926   23.6231 H   0  0  0  0  0  0  0  0  0  0  0  0
    7.4356   33.6651   21.0460 H   0  0  0  0  0  0  0  0  0  0  0  0
    7.6433   34.8743   22.4265 H   0  0  0  0  0  0  0  0  0  0  0  0
    9.5146   33.8932   22.9295 H   0  0  0  0  0  0  0  0  0  0  0  0
    8.4935   32.4274   23.3939 H   0  0  0  0  0  0  0  0  0  0  0  0
    8.9088   31.3515   21.3784 H   0  0  0  0  0  0  0  0  0  0  0  0
    9.6213   32.8669   20.6444 H   0  0  0  0  0  0  0  0  0  0  0  0
   11.0931   30.7891   21.6113 H   0  0  0  0  0  0  0  0  0  0  0  0
   11.6395   32.5192   21.5129 H   0  0  0  0  0  0  0  0  0  0  0  0
   10.5366   32.6949   23.8867 H   0  0  0  0  0  0  0  0  0  0  0  0
   10.7802   30.8905   23.8817 H   0  0  0  0  0  0  0  0  0  0  0  0
  1  2  1  0
  2  3  1  0
  3  4  1  0
  4  5  1  0
  5  6  1  0
  6  7  1  0
  7  8  1  0
  8  9  1  0
  9 10  1  0
 10 11  1  0
 11 12  1  0
 12 13  1  0
 13 14  1  0
 14 15  1  0
 15 16  1  0
 16 17  1  0
 17 18  1  0
 18 19  2  0
 18 20  1  0
  1 21  1  0
  1 22  1  0
  1 23  1  0
  2 24  1  0
  2 25  1  0
  3 26  1  0
  3 27  1  0
  4 28  1  0
  4 29  1  0
  5 30  1  0
  5 31  1  0
  6 32  1  0
  6 33  1  0
  7 34  1  0
  7 35  1  0
  8 36  1  0
  8 37  1  0
  9 38  1  0
  9 39  1  0
 10 40  1  0
 10 41  1  0
 11 42  1  0
 11 43  1  0
 12 44  1  0
 12 45  1  0
 13 46  1  0
 13 47  1  0
 14 48  1  0
 14 49  1  0
 15 50  1  0
 15 51  1  0
 16 52  1  0
 16 53  1  0
 17 54  1  0
 17 55  1  0
M  CHG  1  20  -1
M  END
>  <meeko>  (1) 
{"is_sidechain": [false], "free_energy": -6.341, "intermolecular_energy": -12.272, "internal_energy": -1.319}

$$$$
stearate_Clobe_run01
     RDKit          3D

 55 54  0  0  0  0  0  0  0  0999 V2000
    9.6710   33.1200   23.7000 C   0  0  0  0  0  0  0  0  0  0  0  0
    8.6500   34.0370   23.0440 C   0  0  0  0  0  0  0  0  0  0  0  0
    7.6590   33.3000   22.1390 C   0  0  0  0  0  0  0  0  0  0  0  0
    6.2360   33.2640   22.7030 C   0  0  0  0  0  0  0  0  0  0  0  0
    5.3170   32.4060   21.8300 C   0  0  0  0  0  0  0  0  0  0  0  0
    5.9590   31.9810   20.5050 C   0  0  0  0  0  0  0  0  0  0  0  0
    5.1440   31.0000   19.6560 C   0  0  0  0  0  0  0  0  0  0  0  0
    5.1190   31.2840   18.1510 C   0  0  0  0  0  0  0  0  0  0  0  0
    5.6450   30.1260   17.3050 C   0  0  0  0  0  0  0  0  0  0  0  0
    6.8500   29.3960   17.9110 C   0  0  0  0  0  0  0  0  0  0  0  0
    8.1640   29.5550   17.1360 C   0  0  0  0  0  0  0  0  0  0  0  0
    8.1230   30.7110   16.1310 C   0  0  0  0  0  0  0  0  0  0  0  0
    8.9450   31.9280   16.5680 C   0  0  0  0  0  0  0  0  0  0  0  0
    8.4130   32.6970   17.7820 C   0  0  0  0  0  0  0  0  0  0  0  0
    9.2750   32.6300   19.0460 C   0  0  0  0  0  0  0  0  0  0  0  0
   10.2900   31.4840   19.0370 C   0  0  0  0  0  0  0  0  0  0  0  0
   11.5900   31.8570   19.7460 C   0  0  0  0  0  0  0  0  0  0  0  0
   11.7060   31.2340   21.1110 C   0  0  0  0  0  0  0  0  0  0  0  0
   12.6650   31.3150   21.8580 O   0  0  0  0  0  0  0  0  0  0  0  0
   10.6010   30.5610   21.4800 O   0  0  0  0  0  0  0  0  0  0  0  0
    9.5844   33.1978   24.7938 H   0  0  0  0  0  0  0  0  0  0  0  0
    9.4834   32.0813   23.3903 H   0  0  0  0  0  0  0  0  0  0  0  0
   10.6836   33.4177   23.3903 H   0  0  0  0  0  0  0  0  0  0  0  0
    8.0837   34.5499   23.8353 H   0  0  0  0  0  0  0  0  0  0  0  0
    9.2081   34.7396   22.4077 H   0  0  0  0  0  0  0  0  0  0  0  0
    7.6350   33.8058   21.1625 H   0  0  0  0  0  0  0  0  0  0  0  0
    8.0039   32.2587   22.0576 H   0  0  0  0  0  0  0  0  0  0  0  0
    6.2630   32.8422   23.7186 H   0  0  0  0  0  0  0  0  0  0  0  0
    5.8417   34.2908   22.7203 H   0  0  0  0  0  0  0  0  0  0  0  0
    5.0470   31.5004   22.3929 H   0  0  0  0  0  0  0  0  0  0  0  0
    4.4380   33.0195   21.5830 H   0  0  0  0  0  0  0  0  0  0  0  0
    6.1278   32.8875   19.9052 H   0  0  0  0  0  0  0  0  0  0  0  0
    6.8817   31.4474   20.7766 H   0  0  0  0  0  0  0  0  0  0  0  0
    5.5659   29.9948   19.8030 H   0  0  0  0  0  0  0  0  0  0  0  0
    4.1032   31.1020   19.9971 H   0  0  0  0  0  0  0  0  0  0  0  0
    4.0805   31.4900   17.8525 H   0  0  0  0  0  0  0  0  0  0  0  0
    5.7820   32.1434   17.9722 H   0  0  0  0  0  0  0  0  0  0  0  0
    4.8312   29.3975   17.1747 H   0  0  0  0  0  0  0  0  0  0  0  0
    5.9867   30.5612   16.3543 H   0  0  0  0  0  0  0  0  0  0  0  0
    7.0059   29.7824   18.9290 H   0  0  0  0  0  0  0  0  0  0  0  0
    6.6051   28.3240   17.8821 H   0  0  0  0  0  0  0  0  0  0  0  0
    8.9756   29.7422   17.8545 H   0  0  0  0  0  0  0  0  0  0  0  0
    8.3285   28.6274   16.5681 H   0  0  0  0  0  0  0  0  0  0  0  0
    8.5176   30.3510   15.1694 H   0  0  0  0  0  0  0  0  0  0  0  0
    7.0754   31.0376   16.0550 H   0  0  0  0  0  0  0  0  0  0  0  0
    9.9602   31.5796   16.8087 H   0  0  0  0  0  0  0  0  0  0  0  0
    8.8994   32.6345   15.7261 H   0  0  0  0  0  0  0  0  0  0  0  0
    8.3167   33.7546   17.4953 H   0  0  0  0  0  0  0  0  0  0  0  0
    7.4600   32.2151   18.0456 H   0  0  0  0  0  0  0  0  0  0  0  0
    9.8229   33.5788   19.1437 H   0  0  0  0  0  0  0  0  0  0  0  0
    8.5941   32.4505   19.8911 H   0  0  0  0  0  0  0  0  0  0  0  0
    9.8468   30.6147   19.5447 H   0  0  0  0  0  0  0  0  0  0  0  0
   10.5315   31.2560   17.9883 H   0  0  0  0  0  0  0  0  0  0  0  0
   12.4364   31.5173   19.1310 H   0  0  0  0  0  0  0  0  0  0  0  0
   11.5955   32.9491   19.8775 H   0  0  0  0  0  0  0  0  0  0  0  0
  1  2  1  0
  2  3  1  0
  3  4  1  0
  4  5  1  0
  5  6  1  0
  6  7  1  0
  7  8  1  0
  8  9  1  0
  9 10  1  0
 10 11  1  0
 11 12  1  0
 12 13  1  0
 13 14  1  0
 14 15  1  0
 15 16  1  0
 16 17  1  0
 17 18  1  0
 18 19  2  0
 18 20  1  0
  1 21  1  0
  1 22  1  0
  1 23  1  0
  2 24  1  0
  2 25  1  0
  3 26  1  0
  3 27  1  0
  4 28  1  0
  4 29  1  0
  5 30  1  0
  5 31  1  0
  6 32  1  0
  6 33  1  0
  7 34  1  0
  7 35  1  0
  8 36  1  0
  8 37  1  0
  9 38  1  0
  9 39  1  0
 10 40  1  0
 10 41  1  0
 11 42  1  0
 11 43  1  0
 12 44  1  0
 12 45  1  0
 13 46  1  0
 13 47  1  0
 14 48  1  0
 14 49  1  0
 15 50  1  0
 15 51  1  0
 16 52  1  0
 16 53  1  0
 17 54  1  0
 17 55  1  0
M  CHG  1  20  -1
M  END
>  <meeko>  (2) 
{"is_sidechain": [false], "free_energy": -6.267, "intermolecular_energy": -11.374, "internal_energy": -2.073}

$$$$
stearate_Clobe_run01
     RDKit          3D

 55 54  0  0  0  0  0  0  0  0999 V2000
    7.2030   33.6820   22.6990 C   0  0  0  0  0  0  0  0  0  0  0  0
    5.8050   33.0870   22.6210 C   0  0  0  0  0  0  0  0  0  0  0  0
    5.5830   32.2110   21.3850 C   0  0  0  0  0  0  0  0  0  0  0  0
    6.8500   32.0050   20.5520 C   0  0  0  0  0  0  0  0  0  0  0  0
    6.6460   30.9180   19.4940 C   0  0  0  0  0  0  0  0  0  0  0  0
    5.2080   30.8400   18.9710 C   0  0  0  0  0  0  0  0  0  0  0  0
    4.9670   31.4620   17.5920 C   0  0  0  0  0  0  0  0  0  0  0  0
    4.9390   32.9930   17.5480 C   0  0  0  0  0  0  0  0  0  0  0  0
    6.0440   33.5970   16.6830 C   0  0  0  0  0  0  0  0  0  0  0  0
    7.4660   33.3110   17.1820 C   0  0  0  0  0  0  0  0  0  0  0  0
    8.2310   32.2440   16.3890 C   0  0  0  0  0  0  0  0  0  0  0  0
    9.2710   31.5080   17.2390 C   0  0  0  0  0  0  0  0  0  0  0  0
   10.4990   32.3600   17.5740 C   0  0  0  0  0  0  0  0  0  0  0  0
   11.2130   32.0230   18.8870 C   0  0  0  0  0  0  0  0  0  0  0  0
   10.3070   31.6290   20.0580 C   0  0  0  0  0  0  0  0  0  0  0  0
   11.0740   31.2340   21.3230 C   0  0  0  0  0  0  0  0  0  0  0  0
   10.8610   32.2270   22.4630 C   0  0  0  0  0  0  0  0  0  0  0  0
   11.9490   32.1640   23.4990 C   0  0  0  0  0  0  0  0  0  0  0  0
   13.1030   31.8190   23.3090 O   0  0  0  0  0  0  0  0  0  0  0  0
   11.5430   32.5620   24.7180 O   0  0  0  0  0  0  0  0  0  0  0  0
    7.4910   33.8046   23.7535 H   0  0  0  0  0  0  0  0  0  0  0  0
    7.9161   33.0094   22.1999 H   0  0  0  0  0  0  0  0  0  0  0  0
    7.2127   34.6622   22.1999 H   0  0  0  0  0  0  0  0  0  0  0  0
    5.6373   32.4727   23.5180 H   0  0  0  0  0  0  0  0  0  0  0  0
    5.0986   33.9275   22.5534 H   0  0  0  0  0  0  0  0  0  0  0  0
    5.2190   31.2270   21.7156 H   0  0  0  0  0  0  0  0  0  0  0  0
    4.8540   32.7299   20.7453 H   0  0  0  0  0  0  0  0  0  0  0  0
    7.1075   32.9497   20.0508 H   0  0  0  0  0  0  0  0  0  0  0  0
    7.6613   31.6890   21.2242 H   0  0  0  0  0  0  0  0  0  0  0  0
    7.3146   31.1271   18.6459 H   0  0  0  0  0  0  0  0  0  0  0  0
    6.8703   29.9532   19.9723 H   0  0  0  0  0  0  0  0  0  0  0  0
    4.9255   29.7783   18.9167 H   0  0  0  0  0  0  0  0  0  0  0  0
    4.6011   31.4283   19.6750 H   0  0  0  0  0  0  0  0  0  0  0  0
    5.7695   31.1195   16.9222 H   0  0  0  0  0  0  0  0  0  0  0  0
    3.9615   31.1355   17.2881 H   0  0  0  0  0  0  0  0  0  0  0  0
    3.9668   33.3122   17.1443 H   0  0  0  0  0  0  0  0  0  0  0  0
    5.1007   33.3497   18.5759 H   0  0  0  0  0  0  0  0  0  0  0  0
    5.9473   33.1884   15.6663 H   0  0  0  0  0  0  0  0  0  0  0  0
    5.9113   34.6883   16.7205 H   0  0  0  0  0  0  0  0  0  0  0  0
    8.0394   34.2485   17.1331 H   0  0  0  0  0  0  0  0  0  0  0  0
    7.3589   32.9160   18.2031 H   0  0  0  0  0  0  0  0  0  0  0  0
    7.5099   31.5094   16.0012 H   0  0  0  0  0  0  0  0  0  0  0  0
    8.7678   32.7553   15.5764 H   0  0  0  0  0  0  0  0  0  0  0  0
    8.7947   31.1980   18.1808 H   0  0  0  0  0  0  0  0  0  0  0  0
    9.6237   30.6499   16.6480 H   0  0  0  0  0  0  0  0  0  0  0  0
   11.2247   32.2404   16.7561 H   0  0  0  0  0  0  0  0  0  0  0  0
   10.1231   33.3865   17.6961 H   0  0  0  0  0  0  0  0  0  0  0  0
   11.8974   31.1840   18.6930 H   0  0  0  0  0  0  0  0  0  0  0  0
   11.7171   32.9497   19.1987 H   0  0  0  0  0  0  0  0  0  0  0  0
    9.6579   32.4840   20.2980 H   0  0  0  0  0  0  0  0  0  0  0  0
    9.7353   30.7450   19.7392 H   0  0  0  0  0  0  0  0  0  0  0  0
   10.7305   30.2414   21.6496 H   0  0  0  0  0  0  0  0  0  0  0  0
   12.1464   31.2273   21.0783 H   0  0  0  0  0  0  0  0  0  0  0  0
   10.8331   33.2435   22.0435 H   0  0  0  0  0  0  0  0  0  0  0  0
    9.9147   31.9652   22.9590 H   0  0  0  0  0  0  0  0  0  0  0  0
  1  2  1  0
  2  3  1  0
  3  4  1  0
  4  5  1  0
  5  6  1  0
  6  7  1  0
  7  8  1  0
  8  9  1  0
  9 10  1  0
 10 11  1  0
 11 12  1  0
 12 13  1  0
 13 14  1  0
 14 15  1  0
 15 16  1  0
 16 17  1  0
 17 18  1  0
 18 19  2  0
 18 20  1  0
  1 21  1  0
  1 22  1  0
  1 23  1  0
  2 24  1  0
  2 25  1  0
  3 26  1  0
  3 27  1  0
  4 28  1  0
  4 29  1  0
  5 30  1  0
  5 31  1  0
  6 32  1  0
  6 33  1  0
  7 34  1  0
  7 35  1  0
  8 36  1  0
  8 37  1  0
  9 38  1  0
  9 39  1  0
 10 40  1  0
 10 41  1  0
 11 42  1  0
 11 43  1  0
 12 44  1  0
 12 45  1  0
 13 46  1  0
 13 47  1  0
 14 48  1  0
 14 49  1  0
 15 50  1  0
 15 51  1  0
 16 52  1  0
 16 53  1  0
 17 54  1  0
 17 55  1  0
M  CHG  1  20  -1
M  END
>  <meeko>  (3) 
{"is_sidechain": [false], "free_energy": -6.265, "intermolecular_energy": -11.617, "internal_energy": -1.827}

$$$$
stearate_Clobe_run01
     RDKit          3D

 55 54  0  0  0  0  0  0  0  0999 V2000
    5.4850   32.0890   21.1640 C   0  0  0  0  0  0  0  0  0  0  0  0
    6.1060   31.7300   19.8220 C   0  0  0  0  0  0  0  0  0  0  0  0
    5.0800   31.3120   18.7660 C   0  0  0  0  0  0  0  0  0  0  0  0
    5.6420   30.3400   17.7260 C   0  0  0  0  0  0  0  0  0  0  0  0
    6.8450   29.5730   18.2790 C   0  0  0  0  0  0  0  0  0  0  0  0
    8.0030   29.4550   17.2820 C   0  0  0  0  0  0  0  0  0  0  0  0
    8.4220   30.7570   16.5930 C   0  0  0  0  0  0  0  0  0  0  0  0
    9.0790   31.8060   17.4950 C   0  0  0  0  0  0  0  0  0  0  0  0
   10.5160   31.4610   17.8820 C   0  0  0  0  0  0  0  0  0  0  0  0
   10.8900   31.8320   19.3220 C   0  0  0  0  0  0  0  0  0  0  0  0
    9.7260   31.8140   20.3210 C   0  0  0  0  0  0  0  0  0  0  0  0
   10.1860   31.5660   21.7610 C   0  0  0  0  0  0  0  0  0  0  0  0
   11.7050   31.4200   21.9000 C   0  0  0  0  0  0  0  0  0  0  0  0
   12.3330   32.0750   23.1350 C   0  0  0  0  0  0  0  0  0  0  0  0
   11.4390   32.1520   24.3770 C   0  0  0  0  0  0  0  0  0  0  0  0
   11.8880   33.2090   25.3910 C   0  0  0  0  0  0  0  0  0  0  0  0
   10.9290   33.3160   26.5750 C   0  0  0  0  0  0  0  0  0  0  0  0
   11.6120   33.0910   27.8960 C   0  0  0  0  0  0  0  0  0  0  0  0
   12.7810   32.7840   28.0580 O   0  0  0  0  0  0  0  0  0  0  0  0
   10.8010   33.2870   28.9520 O   0  0  0  0  0  0  0  0  0  0  0  0
    6.1272   31.7177   21.9762 H   0  0  0  0  0  0  0  0  0  0  0  0
    5.3890   33.1820   21.2429 H   0  0  0  0  0  0  0  0  0  0  0  0
    4.4899   31.6268   21.2429 H   0  0  0  0  0  0  0  0  0  0  0  0
    6.6544   32.6066   19.4466 H   0  0  0  0  0  0  0  0  0  0  0  0
    6.7655   30.8661   19.9917 H   0  0  0  0  0  0  0  0  0  0  0  0
    4.2333   30.8278   19.2745 H   0  0  0  0  0  0  0  0  0  0  0  0
    4.7759   32.2228   18.2293 H   0  0  0  0  0  0  0  0  0  0  0  0
    4.8573   29.6223   17.4447 H   0  0  0  0  0  0  0  0  0  0  0  0
    5.9704   30.9186   16.8500 H   0  0  0  0  0  0  0  0  0  0  0  0
    7.2091   30.0954   19.1759 H   0  0  0  0  0  0  0  0  0  0  0  0
    6.5037   28.5514   18.5023 H   0  0  0  0  0  0  0  0  0  0  0  0
    8.8765   29.0631   17.8236 H   0  0  0  0  0  0  0  0  0  0  0  0
    7.6418   28.7944   16.4800 H   0  0  0  0  0  0  0  0  0  0  0  0
    9.1358   30.5025   15.7957 H   0  0  0  0  0  0  0  0  0  0  0  0
    7.4908   31.2161   16.2295 H   0  0  0  0  0  0  0  0  0  0  0  0
    9.0829   32.7691   16.9636 H   0  0  0  0  0  0  0  0  0  0  0  0
    8.4935   31.8460   18.4254 H   0  0  0  0  0  0  0  0  0  0  0  0
   10.6547   30.3768   17.7589 H   0  0  0  0  0  0  0  0  0  0  0  0
   11.1693   32.0539   17.2250 H   0  0  0  0  0  0  0  0  0  0  0  0
   11.6503   31.1180   19.6715 H   0  0  0  0  0  0  0  0  0  0  0  0
   11.2486   32.8713   19.2877 H   0  0  0  0  0  0  0  0  0  0  0  0
    9.2108   32.7850   20.2785 H   0  0  0  0  0  0  0  0  0  0  0  0
    9.0587   30.9865   20.0384 H   0  0  0  0  0  0  0  0  0  0  0  0
    9.8592   32.4132   22.3818 H   0  0  0  0  0  0  0  0  0  0  0  0
    9.7382   30.6149   22.0848 H   0  0  0  0  0  0  0  0  0  0  0  0
   11.9381   30.3455   21.9338 H   0  0  0  0  0  0  0  0  0  0  0  0
   12.1338   31.9468   21.0348 H   0  0  0  0  0  0  0  0  0  0  0  0
   13.2320   31.4999   23.4015 H   0  0  0  0  0  0  0  0  0  0  0  0
   12.5368   33.1174   22.8489 H   0  0  0  0  0  0  0  0  0  0  0  0
   10.4153   32.3924   24.0543 H   0  0  0  0  0  0  0  0  0  0  0  0
   11.5006   31.1757   24.8800 H   0  0  0  0  0  0  0  0  0  0  0  0
   12.8859   32.9384   25.7666 H   0  0  0  0  0  0  0  0  0  0  0  0
   11.9035   34.1828   24.8796 H   0  0  0  0  0  0  0  0  0  0  0  0
   10.4821   34.3211   26.5764 H   0  0  0  0  0  0  0  0  0  0  0  0
   10.1661   32.5323   26.4571 H   0  0  0  0  0  0  0  0  0  0  0  0
  1  2  1  0
  2  3  1  0
  3  4  1  0
  4  5  1  0
  5  6  1  0
  6  7  1  0
  7  8  1  0
  8  9  1  0
  9 10  1  0
 10 11  1  0
 11 12  1  0
 12 13  1  0
 13 14  1  0
 14 15  1  0
 15 16  1  0
 16 17  1  0
 17 18  1  0
 18 19  2  0
 18 20  1  0
  1 21  1  0
  1 22  1  0
  1 23  1  0
  2 24  1  0
  2 25  1  0
  3 26  1  0
  3 27  1  0
  4 28  1  0
  4 29  1  0
  5 30  1  0
  5 31  1  0
  6 32  1  0
  6 33  1  0
  7 34  1  0
  7 35  1  0
  8 36  1  0
  8 37  1  0
  9 38  1  0
  9 39  1  0
 10 40  1  0
 10 41  1  0
 11 42  1  0
 11 43  1  0
 12 44  1  0
 12 45  1  0
 13 46  1  0
 13 47  1  0
 14 48  1  0
 14 49  1  0
 15 50  1  0
 15 51  1  0
 16 52  1  0
 16 53  1  0
 17 54  1  0
 17 55  1  0
M  CHG  1  20  -1
M  END
>  <meeko>  (4) 
{"is_sidechain": [false], "free_energy": -6.243, "intermolecular_energy": -11.903, "internal_energy": -1.498}

$$$$
stearate_Clobe_run01
     RDKit          3D

 55 54  0  0  0  0  0  0  0  0999 V2000
   10.7500   34.0020   26.3130 C   0  0  0  0  0  0  0  0  0  0  0  0
   10.3870   32.6910   25.6320 C   0  0  0  0  0  0  0  0  0  0  0  0
   11.0460   32.5110   24.2620 C   0  0  0  0  0  0  0  0  0  0  0  0
   10.0380   32.3900   23.1160 C   0  0  0  0  0  0  0  0  0  0  0  0
    8.9680   33.4810   23.2030 C   0  0  0  0  0  0  0  0  0  0  0  0
    7.8990   33.3730   22.1110 C   0  0  0  0  0  0  0  0  0  0  0  0
    6.4520   33.2670   22.6050 C   0  0  0  0  0  0  0  0  0  0  0  0
    5.4910   32.5010   21.6910 C   0  0  0  0  0  0  0  0  0  0  0  0
    6.1790   31.8550   20.4890 C   0  0  0  0  0  0  0  0  0  0  0  0
    5.2680   31.6510   19.2730 C   0  0  0  0  0  0  0  0  0  0  0  0
    5.3530   30.2640   18.6230 C   0  0  0  0  0  0  0  0  0  0  0  0
    5.8610   30.3170   17.1790 C   0  0  0  0  0  0  0  0  0  0  0  0
    7.2030   29.6050   16.9780 C   0  0  0  0  0  0  0  0  0  0  0  0
    8.4020   30.5070   16.6660 C   0  0  0  0  0  0  0  0  0  0  0  0
    8.1480   32.0150   16.7690 C   0  0  0  0  0  0  0  0  0  0  0  0
    8.8340   32.6720   17.9700 C   0  0  0  0  0  0  0  0  0  0  0  0
   10.3170   32.3180   18.0540 C   0  0  0  0  0  0  0  0  0  0  0  0
   10.6590   31.5410   19.2950 C   0  0  0  0  0  0  0  0  0  0  0  0
   11.7720   31.4000   19.7710 O   0  0  0  0  0  0  0  0  0  0  0  0
    9.5820   30.9990   19.8940 O   0  0  0  0  0  0  0  0  0  0  0  0
   10.7136   33.8706   27.4045 H   0  0  0  0  0  0  0  0  0  0  0  0
   11.7650   34.3020   26.0135 H   0  0  0  0  0  0  0  0  0  0  0  0
   10.0339   34.7814   26.0135 H   0  0  0  0  0  0  0  0  0  0  0  0
   10.7033   31.8619   26.2820 H   0  0  0  0  0  0  0  0  0  0  0  0
    9.2993   32.7019   25.4686 H   0  0  0  0  0  0  0  0  0  0  0  0
   11.6919   33.3801   24.0684 H   0  0  0  0  0  0  0  0  0  0  0  0
   11.6154   31.5704   24.2956 H   0  0  0  0  0  0  0  0  0  0  0  0
   10.5705   32.4851   22.1582 H   0  0  0  0  0  0  0  0  0  0  0  0
    9.5434   31.4102   23.1890 H   0  0  0  0  0  0  0  0  0  0  0  0
    8.4740   33.4075   24.1831 H   0  0  0  0  0  0  0  0  0  0  0  0
    9.4767   34.4465   23.0652 H   0  0  0  0  0  0  0  0  0  0  0  0
    7.9742   34.2673   21.4749 H   0  0  0  0  0  0  0  0  0  0  0  0
    8.1049   32.4306   21.5823 H   0  0  0  0  0  0  0  0  0  0  0  0
    6.4648   32.7608   23.5815 H   0  0  0  0  0  0  0  0  0  0  0  0
    6.0720   34.2986   22.6413 H   0  0  0  0  0  0  0  0  0  0  0  0
    5.0053   31.7099   22.2810 H   0  0  0  0  0  0  0  0  0  0  0  0
    4.7680   33.2304   21.2970 H   0  0  0  0  0  0  0  0  0  0  0  0
    7.0184   32.4982   20.1862 H   0  0  0  0  0  0  0  0  0  0  0  0
    6.5011   30.8540   20.8118 H   0  0  0  0  0  0  0  0  0  0  0  0
    4.2287   31.8138   19.5944 H   0  0  0  0  0  0  0  0  0  0  0  0
    5.6078   32.3682   18.5113 H   0  0  0  0  0  0  0  0  0  0  0  0
    6.0389   29.6398   19.2145 H   0  0  0  0  0  0  0  0  0  0  0  0
    4.3363   29.8445   18.6019 H   0  0  0  0  0  0  0  0  0  0  0  0
    5.1128   29.8402   16.5287 H   0  0  0  0  0  0  0  0  0  0  0  0
    6.0157   31.3769   16.9285 H   0  0  0  0  0  0  0  0  0  0  0  0
    7.4306   29.0495   17.8997 H   0  0  0  0  0  0  0  0  0  0  0  0
    7.0713   28.9692   16.0901 H   0  0  0  0  0  0  0  0  0  0  0  0
    9.2082   30.2519   17.3696 H   0  0  0  0  0  0  0  0  0  0  0  0
    8.6513   30.3178   15.6115 H   0  0  0  0  0  0  0  0  0  0  0  0
    8.5202   32.4937   15.8512 H   0  0  0  0  0  0  0  0  0  0  0  0
    7.0646   32.1511   16.9023 H   0  0  0  0  0  0  0  0  0  0  0  0
    8.7353   33.7639   17.8804 H   0  0  0  0  0  0  0  0  0  0  0  0
    8.3462   32.2987   18.8825 H   0  0  0  0  0  0  0  0  0  0  0  0
   10.5847   31.7130   17.1752 H   0  0  0  0  0  0  0  0  0  0  0  0
   10.8823   33.2611   18.0863 H   0  0  0  0  0  0  0  0  0  0  0  0
  1  2  1  0
  2  3  1  0
  3  4  1  0
  4  5  1  0
  5  6  1  0
  6  7  1  0
  7  8  1  0
  8  9  1  0
  9 10  1  0
 10 11  1  0
 11 12  1  0
 12 13  1  0
 13 14  1  0
 14 15  1  0
 15 16  1  0
 16 17  1  0
 17 18  1  0
 18 19  2  0
 18 20  1  0
  1 21  1  0
  1 22  1  0
  1 23  1  0
  2 24  1  0
  2 25  1  0
  3 26  1  0
  3 27  1  0
  4 28  1  0
  4 29  1  0
  5 30  1  0
  5 31  1  0
  6 32  1  0
  6 33  1  0
  7 34  1  0
  7 35  1  0
  8 36  1  0
  8 37  1  0
  9 38  1  0
  9 39  1  0
 10 40  1  0
 10 41  1  0
 11 42  1  0
 11 43  1  0
 12 44  1  0
 12 45  1  0
 13 46  1  0
 13 47  1  0
 14 48  1  0
 14 49  1  0
 15 50  1  0
 15 51  1  0
 16 52  1  0
 16 53  1  0
 17 54  1  0
 17 55  1  0
M  CHG  1  20  -1
M  END
>  <meeko>  (5) 
{"is_sidechain": [false], "free_energy": -6.241, "intermolecular_energy": -11.763, "internal_energy": -1.634}

$$$$
stearate_Clobe_run01
     RDKit          3D

 55 54  0  0  0  0  0  0  0  0999 V2000
    8.5420   33.2460   17.7910 C   0  0  0  0  0  0  0  0  0  0  0  0
    9.2940   32.1350   18.5100 C   0  0  0  0  0  0  0  0  0  0  0  0
    9.2420   30.7910   17.7800 C   0  0  0  0  0  0  0  0  0  0  0  0
    8.0460   30.6610   16.8340 C   0  0  0  0  0  0  0  0  0  0  0  0
    7.1740   29.4590   17.2060 C   0  0  0  0  0  0  0  0  0  0  0  0
    6.0040   29.8190   18.1280 C   0  0  0  0  0  0  0  0  0  0  0  0
    5.3030   31.1480   17.8240 C   0  0  0  0  0  0  0  0  0  0  0  0
    5.1940   32.1270   18.9970 C   0  0  0  0  0  0  0  0  0  0  0  0
    6.0600   31.7390   20.1950 C   0  0  0  0  0  0  0  0  0  0  0  0
    5.5030   32.1920   21.5510 C   0  0  0  0  0  0  0  0  0  0  0  0
    6.4410   33.0860   22.3720 C   0  0  0  0  0  0  0  0  0  0  0  0
    7.8590   33.1420   21.7970 C   0  0  0  0  0  0  0  0  0  0  0  0
    8.9370   33.4050   22.8550 C   0  0  0  0  0  0  0  0  0  0  0  0
   10.0830   32.3900   22.9120 C   0  0  0  0  0  0  0  0  0  0  0  0
   10.8360   32.3060   24.2440 C   0  0  0  0  0  0  0  0  0  0  0  0
   10.3860   33.3500   25.2700 C   0  0  0  0  0  0  0  0  0  0  0  0
   10.6920   32.9210   26.7030 C   0  0  0  0  0  0  0  0  0  0  0  0
   12.0790   33.3040   27.1400 C   0  0  0  0  0  0  0  0  0  0  0  0
   12.7810   32.6890   27.9240 O   0  0  0  0  0  0  0  0  0  0  0  0
   12.5270   34.4280   26.5520 O   0  0  0  0  0  0  0  0  0  0  0  0
    8.0862   33.9193   18.5319 H   0  0  0  0  0  0  0  0  0  0  0  0
    9.2419   33.8142   17.1608 H   0  0  0  0  0  0  0  0  0  0  0  0
    7.7544   32.8073   17.1608 H   0  0  0  0  0  0  0  0  0  0  0  0
   10.3472   32.4360   18.6106 H   0  0  0  0  0  0  0  0  0  0  0  0
    8.8058   31.9925   19.4854 H   0  0  0  0  0  0  0  0  0  0  0  0
   10.1653   30.6767   17.1931 H   0  0  0  0  0  0  0  0  0  0  0  0
    9.1377   30.0084   18.5459 H   0  0  0  0  0  0  0  0  0  0  0  0
    7.4395   31.5767   16.8945 H   0  0  0  0  0  0  0  0  0  0  0  0
    8.4248   30.5135   15.8119 H   0  0  0  0  0  0  0  0  0  0  0  0
    6.7680   29.0230   16.2813 H   0  0  0  0  0  0  0  0  0  0  0  0
    7.8132   28.7507   17.7534 H   0  0  0  0  0  0  0  0  0  0  0  0
    5.2551   29.0168   18.0527 H   0  0  0  0  0  0  0  0  0  0  0  0
    6.4375   29.9315   19.1327 H   0  0  0  0  0  0  0  0  0  0  0  0
    5.8609   31.6474   17.0182 H   0  0  0  0  0  0  0  0  0  0  0  0
    4.2688   30.8861   17.5560 H   0  0  0  0  0  0  0  0  0  0  0  0
    5.5057   33.1231   18.6497 H   0  0  0  0  0  0  0  0  0  0  0  0
    4.1474   32.1127   19.3352 H   0  0  0  0  0  0  0  0  0  0  0  0
    6.1552   30.6432   20.2106 H   0  0  0  0  0  0  0  0  0  0  0  0
    7.0250   32.2506   20.0645 H   0  0  0  0  0  0  0  0  0  0  0  0
    4.5729   32.7502   21.3684 H   0  0  0  0  0  0  0  0  0  0  0  0
    5.3546   31.2770   22.1432 H   0  0  0  0  0  0  0  0  0  0  0  0
    6.0284   34.1055   22.3904 H   0  0  0  0  0  0  0  0  0  0  0  0
    6.5093   32.6559   23.3821 H   0  0  0  0  0  0  0  0  0  0  0  0
    8.0759   32.1796   21.3105 H   0  0  0  0  0  0  0  0  0  0  0  0
    7.8883   33.9830   21.0886 H   0  0  0  0  0  0  0  0  0  0  0  0
    9.3732   34.3943   22.6524 H   0  0  0  0  0  0  0  0  0  0  0  0
    8.4250   33.3293   23.8256 H   0  0  0  0  0  0  0  0  0  0  0  0
    9.6637   31.3957   22.6984 H   0  0  0  0  0  0  0  0  0  0  0  0
   10.8220   32.7331   22.1730 H   0  0  0  0  0  0  0  0  0  0  0  0
   10.6746   31.3057   24.6721 H   0  0  0  0  0  0  0  0  0  0  0  0
   11.8965   32.5027   24.0278 H   0  0  0  0  0  0  0  0  0  0  0  0
   10.9080   34.2962   25.0646 H   0  0  0  0  0  0  0  0  0  0  0  0
    9.2959   33.4653   25.1779 H   0  0  0  0  0  0  0  0  0  0  0  0
    9.9660   33.4001   27.3764 H   0  0  0  0  0  0  0  0  0  0  0  0
   10.6220   31.8240   26.7434 H   0  0  0  0  0  0  0  0  0  0  0  0
  1  2  1  0
  2  3  1  0
  3  4  1  0
  4  5  1  0
  5  6  1  0
  6  7  1  0
  7  8  1  0
  8  9  1  0
  9 10  1  0
 10 11  1  0
 11 12  1  0
 12 13  1  0
 13 14  1  0
 14 15  1  0
 15 16  1  0
 16 17  1  0
 17 18  1  0
 18 19  2  0
 18 20  1  0
  1 21  1  0
  1 22  1  0
  1 23  1  0
  2 24  1  0
  2 25  1  0
  3 26  1  0
  3 27  1  0
  4 28  1  0
  4 29  1  0
  5 30  1  0
  5 31  1  0
  6 32  1  0
  6 33  1  0
  7 34  1  0
  7 35  1  0
  8 36  1  0
  8 37  1  0
  9 38  1  0
  9 39  1  0
 10 40  1  0
 10 41  1  0
 11 42  1  0
 11 43  1  0
 12 44  1  0
 12 45  1  0
 13 46  1  0
 13 47  1  0
 14 48  1  0
 14 49  1  0
 15 50  1  0
 15 51  1  0
 16 52  1  0
 16 53  1  0
 17 54  1  0
 17 55  1  0
M  CHG  1  20  -1
M  END
>  <meeko>  (6) 
{"is_sidechain": [false], "free_energy": -6.222, "intermolecular_energy": -11.536, "internal_energy": -1.825}

$$$$
stearate_Clobe_run01
     RDKit          3D

 55 54  0  0  0  0  0  0  0  0999 V2000
   10.5680   35.2870   26.6180 C   0  0  0  0  0  0  0  0  0  0  0  0
   11.8950   34.6080   26.9220 C   0  0  0  0  0  0  0  0  0  0  0  0
   12.1150   33.3150   26.1330 C   0  0  0  0  0  0  0  0  0  0  0  0
   10.9230   32.9320   25.2520 C   0  0  0  0  0  0  0  0  0  0  0  0
   11.3860   32.2680   23.9530 C   0  0  0  0  0  0  0  0  0  0  0  0
   10.2810   32.1620   22.8970 C   0  0  0  0  0  0  0  0  0  0  0  0
    9.1400   33.1760   23.0240 C   0  0  0  0  0  0  0  0  0  0  0  0
    8.0680   33.1140   21.9320 C   0  0  0  0  0  0  0  0  0  0  0  0
    6.6450   33.2560   22.4670 C   0  0  0  0  0  0  0  0  0  0  0  0
    5.5800   32.5300   21.6360 C   0  0  0  0  0  0  0  0  0  0  0  0
    6.1130   31.7870   20.4040 C   0  0  0  0  0  0  0  0  0  0  0  0
    5.3660   32.1580   19.1200 C   0  0  0  0  0  0  0  0  0  0  0  0
    5.1580   30.9730   18.1700 C   0  0  0  0  0  0  0  0  0  0  0  0
    6.1470   29.8120   18.3190 C   0  0  0  0  0  0  0  0  0  0  0  0
    7.0350   29.5300   17.1030 C   0  0  0  0  0  0  0  0  0  0  0  0
    8.5180   29.8230   17.3440 C   0  0  0  0  0  0  0  0  0  0  0  0
    8.8020   31.3200   17.4500 C   0  0  0  0  0  0  0  0  0  0  0  0
    9.8360   31.6430   18.4930 C   0  0  0  0  0  0  0  0  0  0  0  0
   10.0230   31.0340   19.5320 O   0  0  0  0  0  0  0  0  0  0  0  0
   10.6040   32.6990   18.1680 O   0  0  0  0  0  0  0  0  0  0  0  0
   10.0637   35.5450   27.5609 H   0  0  0  0  0  0  0  0  0  0  0  0
   10.7495   36.2030   26.0366 H   0  0  0  0  0  0  0  0  0  0  0  0
    9.9313   34.6039   26.0366 H   0  0  0  0  0  0  0  0  0  0  0  0
   12.7079   35.3075   26.6775 H   0  0  0  0  0  0  0  0  0  0  0  0
   11.8831   34.3379   27.9883 H   0  0  0  0  0  0  0  0  0  0  0  0
   12.9974   33.4449   25.4891 H   0  0  0  0  0  0  0  0  0  0  0  0
   12.2515   32.5059   26.8656 H   0  0  0  0  0  0  0  0  0  0  0  0
   10.2795   32.2310   25.8038 H   0  0  0  0  0  0  0  0  0  0  0  0
   10.3695   33.8478   24.9972 H   0  0  0  0  0  0  0  0  0  0  0  0
   12.2130   32.8601   23.5342 H   0  0  0  0  0  0  0  0  0  0  0  0
   11.6948   31.2426   24.2043 H   0  0  0  0  0  0  0  0  0  0  0  0
   10.7444   32.2970   21.9085 H   0  0  0  0  0  0  0  0  0  0  0  0
    9.8208   31.1736   23.0434 H   0  0  0  0  0  0  0  0  0  0  0  0
    8.6455   33.0080   23.9921 H   0  0  0  0  0  0  0  0  0  0  0  0
    9.6086   34.1664   22.9265 H   0  0  0  0  0  0  0  0  0  0  0  0
    8.2534   33.9277   21.2154 H   0  0  0  0  0  0  0  0  0  0  0  0
    8.1401   32.1213   21.4637 H   0  0  0  0  0  0  0  0  0  0  0  0
    6.6196   32.8500   23.4890 H   0  0  0  0  0  0  0  0  0  0  0  0
    6.3994   34.3274   22.4248 H   0  0  0  0  0  0  0  0  0  0  0  0
    5.0807   31.7971   22.2868 H   0  0  0  0  0  0  0  0  0  0  0  0
    4.9033   33.3094   21.2556 H   0  0  0  0  0  0  0  0  0  0  0  0
    7.1769   32.0356   20.2763 H   0  0  0  0  0  0  0  0  0  0  0  0
    5.9640   30.7107   20.5754 H   0  0  0  0  0  0  0  0  0  0  0  0
    4.3802   32.5613   19.3948 H   0  0  0  0  0  0  0  0  0  0  0  0
    5.9844   32.8954   18.5872 H   0  0  0  0  0  0  0  0  0  0  0  0
    4.1461   30.5774   18.3417 H   0  0  0  0  0  0  0  0  0  0  0  0
    5.3190   31.3722   17.1577 H   0  0  0  0  0  0  0  0  0  0  0  0
    6.8045   30.0366   19.1718 H   0  0  0  0  0  0  0  0  0  0  0  0
    5.5306   28.9109   18.4531 H   0  0  0  0  0  0  0  0  0  0  0  0
    6.9297   28.4685   16.8346 H   0  0  0  0  0  0  0  0  0  0  0  0
    6.7010   30.2011   16.2980 H   0  0  0  0  0  0  0  0  0  0  0  0
    8.8272   29.3368   18.2810 H   0  0  0  0  0  0  0  0  0  0  0  0
    9.0827   29.4328   16.4844 H   0  0  0  0  0  0  0  0  0  0  0  0
    9.1619   31.6797   16.4747 H   0  0  0  0  0  0  0  0  0  0  0  0
    7.8656   31.8152   17.7465 H   0  0  0  0  0  0  0  0  0  0  0  0
  1  2  1  0
  2  3  1  0
  3  4  1  0
  4  5  1  0
  5  6  1  0
  6  7  1  0
  7  8  1  0
  8  9  1  0
  9 10  1  0
 10 11  1  0
 11 12  1  0
 12 13  1  0
 13 14  1  0
 14 15  1  0
 15 16  1  0
 16 17  1  0
 17 18  1  0
 18 19  2  0
 18 20  1  0
  1 21  1  0
  1 22  1  0
  1 23  1  0
  2 24  1  0
  2 25  1  0
  3 26  1  0
  3 27  1  0
  4 28  1  0
  4 29  1  0
  5 30  1  0
  5 31  1  0
  6 32  1  0
  6 33  1  0
  7 34  1  0
  7 35  1  0
  8 36  1  0
  8 37  1  0
  9 38  1  0
  9 39  1  0
 10 40  1  0
 10 41  1  0
 11 42  1  0
 11 43  1  0
 12 44  1  0
 12 45  1  0
 13 46  1  0
 13 47  1  0
 14 48  1  0
 14 49  1  0
 15 50  1  0
 15 51  1  0
 16 52  1  0
 16 53  1  0
 17 54  1  0
 17 55  1  0
M  CHG  1  20  -1
M  END
>  <meeko>  (7) 
{"is_sidechain": [false], "free_energy": -6.161, "intermolecular_energy": -11.949, "internal_energy": -1.293}

$$$$
stearate_Clobe_run01
     RDKit          3D

 55 54  0  0  0  0  0  0  0  0999 V2000
    8.3770   29.4950   17.1770 C   0  0  0  0  0  0  0  0  0  0  0  0
    8.2330   30.4850   16.0310 C   0  0  0  0  0  0  0  0  0  0  0  0
    8.1480   31.9430   16.4890 C   0  0  0  0  0  0  0  0  0  0  0  0
    9.3500   32.7860   16.0550 C   0  0  0  0  0  0  0  0  0  0  0  0
   10.3400   32.9730   17.2070 C   0  0  0  0  0  0  0  0  0  0  0  0
    9.7000   32.8170   18.5900 C   0  0  0  0  0  0  0  0  0  0  0  0
   10.1270   31.5780   19.3840 C   0  0  0  0  0  0  0  0  0  0  0  0
   11.5930   31.5400   19.8240 C   0  0  0  0  0  0  0  0  0  0  0  0
   11.7720   31.4150   21.3360 C   0  0  0  0  0  0  0  0  0  0  0  0
   10.4620   31.4580   22.1330 C   0  0  0  0  0  0  0  0  0  0  0  0
   10.4700   32.3970   23.3460 C   0  0  0  0  0  0  0  0  0  0  0  0
    9.2640   33.3420   23.3700 C   0  0  0  0  0  0  0  0  0  0  0  0
    8.2540   33.0710   22.2500 C   0  0  0  0  0  0  0  0  0  0  0  0
    6.7850   33.3480   22.5880 C   0  0  0  0  0  0  0  0  0  0  0  0
    5.7510   32.6370   21.7090 C   0  0  0  0  0  0  0  0  0  0  0  0
    6.3690   31.8350   20.5610 C   0  0  0  0  0  0  0  0  0  0  0  0
    5.5650   31.9640   19.2690 C   0  0  0  0  0  0  0  0  0  0  0  0
    5.1940   30.6300   18.6810 C   0  0  0  0  0  0  0  0  0  0  0  0
    5.5400   29.5390   19.1000 O   0  0  0  0  0  0  0  0  0  0  0  0
    4.3870   30.7300   17.6090 O   0  0  0  0  0  0  0  0  0  0  0  0
    8.2993   30.0295   18.1352 H   0  0  0  0  0  0  0  0  0  0  0  0
    7.5791   28.7405   17.1122 H   0  0  0  0  0  0  0  0  0  0  0  0
    9.3567   28.9991   17.1122 H   0  0  0  0  0  0  0  0  0  0  0  0
    9.1043   30.3788   15.3680 H   0  0  0  0  0  0  0  0  0  0  0  0
    7.2876   30.2515   15.5194 H   0  0  0  0  0  0  0  0  0  0  0  0
    7.2369   32.3897   16.0643 H   0  0  0  0  0  0  0  0  0  0  0  0
    8.1339   31.9383   17.5889 H   0  0  0  0  0  0  0  0  0  0  0  0
    9.8604   32.2808   15.2218 H   0  0  0  0  0  0  0  0  0  0  0  0
    8.9865   33.7765   15.7440 H   0  0  0  0  0  0  0  0  0  0  0  0
   11.1386   32.2233   17.1057 H   0  0  0  0  0  0  0  0  0  0  0  0
   10.7246   34.0014   17.1411 H   0  0  0  0  0  0  0  0  0  0  0  0
    9.9594   33.7054   19.1846 H   0  0  0  0  0  0  0  0  0  0  0  0
    8.6212   32.7003   18.4096 H   0  0  0  0  0  0  0  0  0  0  0  0
    9.5021   31.5246   20.2877 H   0  0  0  0  0  0  0  0  0  0  0  0
    9.9987   30.7263   18.6997 H   0  0  0  0  0  0  0  0  0  0  0  0
   12.0786   30.6779   19.3434 H   0  0  0  0  0  0  0  0  0  0  0  0
   12.0464   32.4957   19.5223 H   0  0  0  0  0  0  0  0  0  0  0  0
   12.2714   30.4576   21.5457 H   0  0  0  0  0  0  0  0  0  0  0  0
   12.3638   32.2853   21.6559 H   0  0  0  0  0  0  0  0  0  0  0  0
    9.6605   31.7847   21.4542 H   0  0  0  0  0  0  0  0  0  0  0  0
   10.3117   30.4437   22.5312 H   0  0  0  0  0  0  0  0  0  0  0  0
   10.4586   31.7884   24.2623 H   0  0  0  0  0  0  0  0  0  0  0  0
   11.3765   33.0166   23.2806 H   0  0  0  0  0  0  0  0  0  0  0  0
    8.7513   33.2280   24.3365 H   0  0  0  0  0  0  0  0  0  0  0  0
    9.6484   34.3617   23.2199 H   0  0  0  0  0  0  0  0  0  0  0  0
    8.5265   33.7021   21.3913 H   0  0  0  0  0  0  0  0  0  0  0  0
    8.3139   31.9906   22.0519 H   0  0  0  0  0  0  0  0  0  0  0  0
    6.6140   33.0362   23.6289 H   0  0  0  0  0  0  0  0  0  0  0  0
    6.6365   34.4236   22.4118 H   0  0  0  0  0  0  0  0  0  0  0  0
    5.1717   31.9484   22.3416 H   0  0  0  0  0  0  0  0  0  0  0  0
    5.1228   33.4176   21.2551 H   0  0  0  0  0  0  0  0  0  0  0  0
    7.3899   32.2029   20.3812 H   0  0  0  0  0  0  0  0  0  0  0  0
    6.3713   30.7744   20.8529 H   0  0  0  0  0  0  0  0  0  0  0  0
    4.6423   32.5232   19.4830 H   0  0  0  0  0  0  0  0  0  0  0  0
    6.1963   32.4867   18.5354 H   0  0  0  0  0  0  0  0  0  0  0  0
  1  2  1  0
  2  3  1  0
  3  4  1  0
  4  5  1  0
  5  6  1  0
  6  7  1  0
  7  8  1  0
  8  9  1  0
  9 10  1  0
 10 11  1  0
 11 12  1  0
 12 13  1  0
 13 14  1  0
 14 15  1  0
 15 16  1  0
 16 17  1  0
 17 18  1  0
 18 19  2  0
 18 20  1  0
  1 21  1  0
  1 22  1  0
  1 23  1  0
  2 24  1  0
  2 25  1  0
  3 26  1  0
  3 27  1  0
  4 28  1  0
  4 29  1  0
  5 30  1  0
  5 31  1  0
  6 32  1  0
  6 33  1  0
  7 34  1  0
  7 35  1  0
  8 36  1  0
  8 37  1  0
  9 38  1  0
  9 39  1  0
 10 40  1  0
 10 41  1  0
 11 42  1  0
 11 43  1  0
 12 44  1  0
 12 45  1  0
 13 46  1  0
 13 47  1  0
 14 48  1  0
 14 49  1  0
 15 50  1  0
 15 51  1  0
 16 52  1  0
 16 53  1  0
 17 54  1  0
 17 55  1  0
M  CHG  1  20  -1
M  END
>  <meeko>  (8) 
{"is_sidechain": [false], "free_energy": -6.125, "intermolecular_energy": -11.051, "internal_energy": -2.122}

$$$$
stearate_Clobe_run01
     RDKit          3D

 55 54  0  0  0  0  0  0  0  0999 V2000
   12.2850   34.1140   29.4990 C   0  0  0  0  0  0  0  0  0  0  0  0
   12.7400   33.7610   28.0910 C   0  0  0  0  0  0  0  0  0  0  0  0
   12.3320   34.7950   27.0390 C   0  0  0  0  0  0  0  0  0  0  0  0
   10.8660   34.6810   26.6140 C   0  0  0  0  0  0  0  0  0  0  0  0
   10.4780   33.2240   26.3500 C   0  0  0  0  0  0  0  0  0  0  0  0
   10.3420   32.8900   24.8610 C   0  0  0  0  0  0  0  0  0  0  0  0
   11.5690   32.2440   24.2100 C   0  0  0  0  0  0  0  0  0  0  0  0
   11.4530   31.9570   22.7090 C   0  0  0  0  0  0  0  0  0  0  0  0
   10.0350   32.1260   22.1660 C   0  0  0  0  0  0  0  0  0  0  0  0
    9.8940   31.8370   20.6660 C   0  0  0  0  0  0  0  0  0  0  0  0
   11.2060   31.5110   19.9410 C   0  0  0  0  0  0  0  0  0  0  0  0
   11.0720   31.5820   18.4160 C   0  0  0  0  0  0  0  0  0  0  0  0
   10.8190   32.9990   17.8910 C   0  0  0  0  0  0  0  0  0  0  0  0
    9.4150   33.2710   17.3420 C   0  0  0  0  0  0  0  0  0  0  0  0
    9.1140   32.6890   15.9570 C   0  0  0  0  0  0  0  0  0  0  0  0
    8.3540   31.3600   16.0010 C   0  0  0  0  0  0  0  0  0  0  0  0
    7.4580   31.2480   17.2330 C   0  0  0  0  0  0  0  0  0  0  0  0
    7.7140   29.9940   18.0240 C   0  0  0  0  0  0  0  0  0  0  0  0
    7.1540   29.6690   19.0570 O   0  0  0  0  0  0  0  0  0  0  0  0
    8.6450   29.1980   17.4670 O   0  0  0  0  0  0  0  0  0  0  0  0
   12.9338   33.6107   30.2310 H   0  0  0  0  0  0  0  0  0  0  0  0
   12.3467   35.2029   29.6421 H   0  0  0  0  0  0  0  0  0  0  0  0
   11.2456   33.7837   29.6421 H   0  0  0  0  0  0  0  0  0  0  0  0
   13.8369   33.6781   28.0903 H   0  0  0  0  0  0  0  0  0  0  0  0
   12.2493   32.8143   27.8208 H   0  0  0  0  0  0  0  0  0  0  0  0
   12.4978   35.7999   27.4546 H   0  0  0  0  0  0  0  0  0  0  0  0
   12.9455   34.6095   26.1450 H   0  0  0  0  0  0  0  0  0  0  0  0
   10.2279   35.0828   27.4149 H   0  0  0  0  0  0  0  0  0  0  0  0
   10.7274   35.2524   25.6843 H   0  0  0  0  0  0  0  0  0  0  0  0
   11.2514   32.5732   26.7839 H   0  0  0  0  0  0  0  0  0  0  0  0
    9.4920   33.0624   26.8101 H   0  0  0  0  0  0  0  0  0  0  0  0
    9.4948   32.1979   24.7460 H   0  0  0  0  0  0  0  0  0  0  0  0
   10.2037   33.8538   24.3491 H   0  0  0  0  0  0  0  0  0  0  0  0
   12.4251   32.9184   24.3597 H   0  0  0  0  0  0  0  0  0  0  0  0
   11.6829   31.2629   24.6943 H   0  0  0  0  0  0  0  0  0  0  0  0
   12.1174   32.6481   22.1696 H   0  0  0  0  0  0  0  0  0  0  0  0
   11.7353   30.9047   22.5572 H   0  0  0  0  0  0  0  0  0  0  0  0
    9.3727   31.4388   22.7128 H   0  0  0  0  0  0  0  0  0  0  0  0
    9.7671   33.1832   22.3093 H   0  0  0  0  0  0  0  0  0  0  0  0
    9.2160   30.9791   20.5463 H   0  0  0  0  0  0  0  0  0  0  0  0
    9.5131   32.7626   20.2097 H   0  0  0  0  0  0  0  0  0  0  0  0
   11.9733   32.2314   20.2608 H   0  0  0  0  0  0  0  0  0  0  0  0
   11.4829   30.4791   20.2027 H   0  0  0  0  0  0  0  0  0  0  0  0
   12.0025   31.2050   17.9666 H   0  0  0  0  0  0  0  0  0  0  0  0
   10.1988   30.9731   18.1388 H   0  0  0  0  0  0  0  0  0  0  0  0
   10.9988   33.7015   18.7182 H   0  0  0  0  0  0  0  0  0  0  0  0
   11.5009   33.1250   17.0371 H   0  0  0  0  0  0  0  0  0  0  0  0
    8.6881   32.8477   18.0508 H   0  0  0  0  0  0  0  0  0  0  0  0
    9.3464   34.3629   17.2275 H   0  0  0  0  0  0  0  0  0  0  0  0
    8.5082   33.4174   15.3981 H   0  0  0  0  0  0  0  0  0  0  0  0
   10.0820   32.4906   15.4737 H   0  0  0  0  0  0  0  0  0  0  0  0
    7.7286   31.2796   15.0997 H   0  0  0  0  0  0  0  0  0  0  0  0
    9.0952   30.5486   16.0477 H   0  0  0  0  0  0  0  0  0  0  0  0
    7.6413   32.1171   17.8818 H   0  0  0  0  0  0  0  0  0  0  0  0
    6.4154   31.2141   16.8841 H   0  0  0  0  0  0  0  0  0  0  0  0
  1  2  1  0
  2  3  1  0
  3  4  1  0
  4  5  1  0
  5  6  1  0
  6  7  1  0
  7  8  1  0
  8  9  1  0
  9 10  1  0
 10 11  1  0
 11 12  1  0
 12 13  1  0
 13 14  1  0
 14 15  1  0
 15 16  1  0
 16 17  1  0
 17 18  1  0
 18 19  2  0
 18 20  1  0
  1 21  1  0
  1 22  1  0
  1 23  1  0
  2 24  1  0
  2 25  1  0
  3 26  1  0
  3 27  1  0
  4 28  1  0
  4 29  1  0
  5 30  1  0
  5 31  1  0
  6 32  1  0
  6 33  1  0
  7 34  1  0
  7 35  1  0
  8 36  1  0
  8 37  1  0
  9 38  1  0
  9 39  1  0
 10 40  1  0
 10 41  1  0
 11 42  1  0
 11 43  1  0
 12 44  1  0
 12 45  1  0
 13 46  1  0
 13 47  1  0
 14 48  1  0
 14 49  1  0
 15 50  1  0
 15 51  1  0
 16 52  1  0
 16 53  1  0
 17 54  1  0
 17 55  1  0
M  CHG  1  20  -1
M  END
>  <meeko>  (9) 
{"is_sidechain": [false], "free_energy": -6.112, "intermolecular_energy": -11.791, "internal_energy": -1.357}

$$$$
stearate_Clobe_run01
     RDKit          3D

 55 54  0  0  0  0  0  0  0  0999 V2000
    5.1740   31.2580   19.2190 C   0  0  0  0  0  0  0  0  0  0  0  0
    5.0430   31.0480   17.7170 C   0  0  0  0  0  0  0  0  0  0  0  0
    5.8340   29.8450   17.1970 C   0  0  0  0  0  0  0  0  0  0  0  0
    7.1490   29.6150   17.9460 C   0  0  0  0  0  0  0  0  0  0  0  0
    8.3350   30.1970   17.1730 C   0  0  0  0  0  0  0  0  0  0  0  0
    9.3580   30.9030   18.0690 C   0  0  0  0  0  0  0  0  0  0  0  0
    8.7780   31.8790   19.0990 C   0  0  0  0  0  0  0  0  0  0  0  0
    9.3040   31.7280   20.5290 C   0  0  0  0  0  0  0  0  0  0  0  0
   10.8040   31.4430   20.5990 C   0  0  0  0  0  0  0  0  0  0  0  0
   11.3980   31.5240   22.0100 C   0  0  0  0  0  0  0  0  0  0  0  0
   10.5240   32.2470   23.0430 C   0  0  0  0  0  0  0  0  0  0  0  0
   11.1250   32.2150   24.4520 C   0  0  0  0  0  0  0  0  0  0  0  0
   10.3930   33.1210   25.4480 C   0  0  0  0  0  0  0  0  0  0  0  0
   11.2810   33.9780   26.3550 C   0  0  0  0  0  0  0  0  0  0  0  0
   12.1980   33.2090   27.3120 C   0  0  0  0  0  0  0  0  0  0  0  0
   12.1240   33.7010   28.7610 C   0  0  0  0  0  0  0  0  0  0  0  0
   13.2670   34.6520   29.1070 C   0  0  0  0  0  0  0  0  0  0  0  0
   14.1140   34.1520   30.2450 C   0  0  0  0  0  0  0  0  0  0  0  0
   14.3550   34.7520   31.2780 O   0  0  0  0  0  0  0  0  0  0  0  0
   14.5970   32.9130   30.0410 O   0  0  0  0  0  0  0  0  0  0  0  0
    4.6640   30.4404   19.7494 H   0  0  0  0  0  0  0  0  0  0  0  0
    6.2384   31.2673   19.4965 H   0  0  0  0  0  0  0  0  0  0  0  0
    4.7143   32.2181   19.4965 H   0  0  0  0  0  0  0  0  0  0  0  0
    3.9801   30.8953   17.4782 H   0  0  0  0  0  0  0  0  0  0  0  0
    5.4563   31.9426   17.2281 H   0  0  0  0  0  0  0  0  0  0  0  0
    5.2102   28.9451   17.3024 H   0  0  0  0  0  0  0  0  0  0  0  0
    6.0891   30.0521   16.1472 H   0  0  0  0  0  0  0  0  0  0  0  0
    7.0902   30.1000   18.9316 H   0  0  0  0  0  0  0  0  0  0  0  0
    7.3026   28.5313   18.0557 H   0  0  0  0  0  0  0  0  0  0  0  0
    8.8423   29.3770   16.6436 H   0  0  0  0  0  0  0  0  0  0  0  0
    7.9329   30.9523   16.4818 H   0  0  0  0  0  0  0  0  0  0  0  0
    9.9197   30.1303   18.6145 H   0  0  0  0  0  0  0  0  0  0  0  0
    9.9775   31.5122   17.3944 H   0  0  0  0  0  0  0  0  0  0  0  0
    9.0059   32.9008   18.7616 H   0  0  0  0  0  0  0  0  0  0  0  0
    7.7023   31.6548   19.1508 H   0  0  0  0  0  0  0  0  0  0  0  0
    9.1008   32.6609   21.0752 H   0  0  0  0  0  0  0  0  0  0  0  0
    8.7890   30.8639   20.9741 H   0  0  0  0  0  0  0  0  0  0  0  0
   10.9804   30.4297   20.2089 H   0  0  0  0  0  0  0  0  0  0  0  0
   11.3003   32.2236   20.0037 H   0  0  0  0  0  0  0  0  0  0  0  0
   11.5695   30.4978   22.3671 H   0  0  0  0  0  0  0  0  0  0  0  0
   12.3206   32.1164   21.9207 H   0  0  0  0  0  0  0  0  0  0  0  0
   10.4084   33.2962   22.7335 H   0  0  0  0  0  0  0  0  0  0  0  0
    9.5563   31.7256   23.0826 H   0  0  0  0  0  0  0  0  0  0  0  0
   11.0829   31.1812   24.8254 H   0  0  0  0  0  0  0  0  0  0  0  0
   12.1570   32.5875   24.3728 H   0  0  0  0  0  0  0  0  0  0  0  0
    9.7456   33.7993   24.8729 H   0  0  0  0  0  0  0  0  0  0  0  0
    9.8491   32.4423   26.1215 H   0  0  0  0  0  0  0  0  0  0  0  0
   11.9152   34.6050   25.7111 H   0  0  0  0  0  0  0  0  0  0  0  0
   10.5915   34.5473   26.9957 H   0  0  0  0  0  0  0  0  0  0  0  0
   11.9113   32.1472   27.2903 H   0  0  0  0  0  0  0  0  0  0  0  0
   13.2305   33.3709   26.9689 H   0  0  0  0  0  0  0  0  0  0  0  0
   11.1691   34.2268   28.9081 H   0  0  0  0  0  0  0  0  0  0  0  0
   12.2040   32.8236   29.4197 H   0  0  0  0  0  0  0  0  0  0  0  0
   13.9056   34.7723   28.2195 H   0  0  0  0  0  0  0  0  0  0  0  0
   12.8209   35.6076   29.4198 H   0  0  0  0  0  0  0  0  0  0  0  0
  1  2  1  0
  2  3  1  0
  3  4  1  0
  4  5  1  0
  5  6  1  0
  6  7  1  0
  7  8  1  0
  8  9  1  0
  9 10  1  0
 10 11  1  0
 11 12  1  0
 12 13  1  0
 13 14  1  0
 14 15  1  0
 15 16  1  0
 16 17  1  0
 17 18  1  0
 18 19  2  0
 18 20  1  0
  1 21  1  0
  1 22  1  0
  1 23  1  0
  2 24  1  0
  2 25  1  0
  3 26  1  0
  3 27  1  0
  4 28  1  0
  4 29  1  0
  5 30  1  0
  5 31  1  0
  6 32  1  0
  6 33  1  0
  7 34  1  0
  7 35  1  0
  8 36  1  0
  8 37  1  0
  9 38  1  0
  9 39  1  0
 10 40  1  0
 10 41  1  0
 11 42  1  0
 11 43  1  0
 12 44  1  0
 12 45  1  0
 13 46  1  0
 13 47  1  0
 14 48  1  0
 14 49  1  0
 15 50  1  0
 15 51  1  0
 16 52  1  0
 16 53  1  0
 17 54  1  0
 17 55  1  0
M  CHG  1  20  -1
M  END
>  <meeko>  (10) 
{"is_sidechain": [false], "free_energy": -6.056, "intermolecular_energy": -12.085, "internal_energy": -0.955}

$$$$
stearate_Clobe_run01
     RDKit          3D

 55 54  0  0  0  0  0  0  0  0999 V2000
   10.9890   35.0370   26.6770 C   0  0  0  0  0  0  0  0  0  0  0  0
   12.2250   34.1600   26.5480 C   0  0  0  0  0  0  0  0  0  0  0  0
   12.1110   33.1000   25.4500 C   0  0  0  0  0  0  0  0  0  0  0  0
   10.6630   32.7470   25.0970 C   0  0  0  0  0  0  0  0  0  0  0  0
   10.5540   32.2380   23.6570 C   0  0  0  0  0  0  0  0  0  0  0  0
   11.9100   31.9250   23.0180 C   0  0  0  0  0  0  0  0  0  0  0  0
   11.8630   31.4270   21.5690 C   0  0  0  0  0  0  0  0  0  0  0  0
   10.5270   31.6130   20.8440 C   0  0  0  0  0  0  0  0  0  0  0  0
   10.6570   31.6280   19.3220 C   0  0  0  0  0  0  0  0  0  0  0  0
    9.3910   32.0780   18.5830 C   0  0  0  0  0  0  0  0  0  0  0  0
    9.5200   32.1470   17.0560 C   0  0  0  0  0  0  0  0  0  0  0  0
    8.5460   31.2100   16.3360 C   0  0  0  0  0  0  0  0  0  0  0  0
    8.0830   30.0310   17.1990 C   0  0  0  0  0  0  0  0  0  0  0  0
    6.5750   29.9350   17.4520 C   0  0  0  0  0  0  0  0  0  0  0  0
    6.0980   30.3980   18.8320 C   0  0  0  0  0  0  0  0  0  0  0  0
    5.1870   31.6280   18.7870 C   0  0  0  0  0  0  0  0  0  0  0  0
    4.6220   31.8770   17.3900 C   0  0  0  0  0  0  0  0  0  0  0  0
    4.8560   33.2840   16.9120 C   0  0  0  0  0  0  0  0  0  0  0  0
    4.0090   34.0460   16.4790 O   0  0  0  0  0  0  0  0  0  0  0  0
    6.1380   33.6750   17.0250 O   0  0  0  0  0  0  0  0  0  0  0  0
   10.7628   35.1975   27.7415 H   0  0  0  0  0  0  0  0  0  0  0  0
   11.1749   36.0064   26.1914 H   0  0  0  0  0  0  0  0  0  0  0  0
   10.1354   34.5414   26.1914 H   0  0  0  0  0  0  0  0  0  0  0  0
   13.0869   34.8047   26.3211 H   0  0  0  0  0  0  0  0  0  0  0  0
   12.3428   33.6254   27.5021 H   0  0  0  0  0  0  0  0  0  0  0  0
   12.6084   33.4795   24.5453 H   0  0  0  0  0  0  0  0  0  0  0  0
   12.5862   32.1839   25.8308 H   0  0  0  0  0  0  0  0  0  0  0  0
   10.3070   31.9639   25.7826 H   0  0  0  0  0  0  0  0  0  0  0  0
   10.0491   33.6546   25.1937 H   0  0  0  0  0  0  0  0  0  0  0  0
    9.9482   31.3198   23.6567 H   0  0  0  0  0  0  0  0  0  0  0  0
   10.0928   33.0408   23.0630 H   0  0  0  0  0  0  0  0  0  0  0  0
   12.5142   32.8440   23.0401 H   0  0  0  0  0  0  0  0  0  0  0  0
   12.3346   31.0977   23.6057 H   0  0  0  0  0  0  0  0  0  0  0  0
   12.6337   31.9684   21.0008 H   0  0  0  0  0  0  0  0  0  0  0  0
   12.0264   30.3404   21.6208 H   0  0  0  0  0  0  0  0  0  0  0  0
    9.8585   30.7870   21.1283 H   0  0  0  0  0  0  0  0  0  0  0  0
   10.1293   32.5936   21.1446 H   0  0  0  0  0  0  0  0  0  0  0  0
   11.4743   32.3133   19.0532 H   0  0  0  0  0  0  0  0  0  0  0  0
   10.8490   30.5899   19.0129 H   0  0  0  0  0  0  0  0  0  0  0  0
    8.5848   31.3700   18.8254 H   0  0  0  0  0  0  0  0  0  0  0  0
    9.1875   33.1050   18.9204 H   0  0  0  0  0  0  0  0  0  0  0  0
    9.3192   33.1790   16.7325 H   0  0  0  0  0  0  0  0  0  0  0  0
   10.5401   31.8291   16.7948 H   0  0  0  0  0  0  0  0  0  0  0  0
    7.6613   31.7908   16.0360 H   0  0  0  0  0  0  0  0  0  0  0  0
    9.0805   30.7888   15.4717 H   0  0  0  0  0  0  0  0  0  0  0  0
    8.4002   29.1036   16.6997 H   0  0  0  0  0  0  0  0  0  0  0  0
    8.5399   30.1894   18.1870 H   0  0  0  0  0  0  0  0  0  0  0  0
    6.0663   30.5505   16.6954 H   0  0  0  0  0  0  0  0  0  0  0  0
    6.3311   28.8638   17.3964 H   0  0  0  0  0  0  0  0  0  0  0  0
    5.5442   29.5726   19.3031 H   0  0  0  0  0  0  0  0  0  0  0  0
    6.9939   30.6820   19.4035 H   0  0  0  0  0  0  0  0  0  0  0  0
    4.3508   31.4752   19.4852 H   0  0  0  0  0  0  0  0  0  0  0  0
    5.7890   32.5045   19.0688 H   0  0  0  0  0  0  0  0  0  0  0  0
    5.1033   31.1816   16.6866 H   0  0  0  0  0  0  0  0  0  0  0  0
    3.5345   31.7187   17.4381 H   0  0  0  0  0  0  0  0  0  0  0  0
  1  2  1  0
  2  3  1  0
  3  4  1  0
  4  5  1  0
  5  6  1  0
  6  7  1  0
  7  8  1  0
  8  9  1  0
  9 10  1  0
 10 11  1  0
 11 12  1  0
 12 13  1  0
 13 14  1  0
 14 15  1  0
 15 16  1  0
 16 17  1  0
 17 18  1  0
 18 19  2  0
 18 20  1  0
  1 21  1  0
  1 22  1  0
  1 23  1  0
  2 24  1  0
  2 25  1  0
  3 26  1  0
  3 27  1  0
  4 28  1  0
  4 29  1  0
  5 30  1  0
  5 31  1  0
  6 32  1  0
  6 33  1  0
  7 34  1  0
  7 35  1  0
  8 36  1  0
  8 37  1  0
  9 38  1  0
  9 39  1  0
 10 40  1  0
 10 41  1  0
 11 42  1  0
 11 43  1  0
 12 44  1  0
 12 45  1  0
 13 46  1  0
 13 47  1  0
 14 48  1  0
 14 49  1  0
 15 50  1  0
 15 51  1  0
 16 52  1  0
 16 53  1  0
 17 54  1  0
 17 55  1  0
M  CHG  1  20  -1
M  END
>  <meeko>  (11) 
{"is_sidechain": [false], "free_energy": -6.045, "intermolecular_energy": -11.672, "internal_energy": -1.345}

$$$$
stearate_Clobe_run01
     RDKit          3D

 55 54  0  0  0  0  0  0  0  0999 V2000
   14.1500   33.2270   29.9300 C   0  0  0  0  0  0  0  0  0  0  0  0
   13.5900   34.5000   30.5470 C   0  0  0  0  0  0  0  0  0  0  0  0
   12.0840   34.4380   30.8160 C   0  0  0  0  0  0  0  0  0  0  0  0
   11.2640   34.0500   29.5840 C   0  0  0  0  0  0  0  0  0  0  0  0
   10.7020   35.2880   28.8810 C   0  0  0  0  0  0  0  0  0  0  0  0
   10.9340   35.2860   27.3660 C   0  0  0  0  0  0  0  0  0  0  0  0
   12.2710   34.7000   26.9000 C   0  0  0  0  0  0  0  0  0  0  0  0
   12.1880   33.3650   26.1520 C   0  0  0  0  0  0  0  0  0  0  0  0
   10.7560   32.9010   25.8940 C   0  0  0  0  0  0  0  0  0  0  0  0
   10.4380   32.6180   24.4210 C   0  0  0  0  0  0  0  0  0  0  0  0
   11.6360   32.1740   23.5710 C   0  0  0  0  0  0  0  0  0  0  0  0
   11.2430   31.8200   22.1340 C   0  0  0  0  0  0  0  0  0  0  0  0
    9.8070   32.2190   21.7780 C   0  0  0  0  0  0  0  0  0  0  0  0
    9.1920   31.5050   20.5700 C   0  0  0  0  0  0  0  0  0  0  0  0
    9.9230   31.6950   19.2370 C   0  0  0  0  0  0  0  0  0  0  0  0
    9.0150   31.5570   18.0120 C   0  0  0  0  0  0  0  0  0  0  0  0
    8.9570   30.1210   17.4950 C   0  0  0  0  0  0  0  0  0  0  0  0
    7.6040   29.4910   17.6840 C   0  0  0  0  0  0  0  0  0  0  0  0
    7.0780   29.2240   18.7510 O   0  0  0  0  0  0  0  0  0  0  0  0
    6.9660   29.2490   16.5250 O   0  0  0  0  0  0  0  0  0  0  0  0
   14.4543   32.5352   30.7293 H   0  0  0  0  0  0  0  0  0  0  0  0
   13.3782   32.7510   29.3073 H   0  0  0  0  0  0  0  0  0  0  0  0
   15.0224   33.4743   29.3073 H   0  0  0  0  0  0  0  0  0  0  0  0
   14.1068   34.6809   31.5011 H   0  0  0  0  0  0  0  0  0  0  0  0
   13.7557   35.3106   29.8221 H   0  0  0  0  0  0  0  0  0  0  0  0
   11.9008   33.6943   31.6056 H   0  0  0  0  0  0  0  0  0  0  0  0
   11.7649   35.4474   31.1147 H   0  0  0  0  0  0  0  0  0  0  0  0
   11.9088   33.5006   28.8823 H   0  0  0  0  0  0  0  0  0  0  0  0
   10.4217   33.4219   29.9098 H   0  0  0  0  0  0  0  0  0  0  0  0
    9.6189   35.3334   29.0678 H   0  0  0  0  0  0  0  0  0  0  0  0
   11.2315   36.1615   29.2893 H   0  0  0  0  0  0  0  0  0  0  0  0
   10.1276   34.6998   26.9012 H   0  0  0  0  0  0  0  0  0  0  0  0
   10.9479   36.3434   27.0631 H   0  0  0  0  0  0  0  0  0  0  0  0
   12.7463   35.4328   26.2314 H   0  0  0  0  0  0  0  0  0  0  0  0
   12.8435   34.4945   27.8165 H   0  0  0  0  0  0  0  0  0  0  0  0
   12.6982   33.4758   25.1838 H   0  0  0  0  0  0  0  0  0  0  0  0
   12.6649   32.6060   26.7895 H   0  0  0  0  0  0  0  0  0  0  0  0
   10.5851   31.9774   26.4665 H   0  0  0  0  0  0  0  0  0  0  0  0
   10.0978   33.7258   26.2046 H   0  0  0  0  0  0  0  0  0  0  0  0
    9.6793   31.8224   24.3828 H   0  0  0  0  0  0  0  0  0  0  0  0
   10.0945   33.5712   23.9927 H   0  0  0  0  0  0  0  0  0  0  0  0
   12.3704   32.9925   23.5434 H   0  0  0  0  0  0  0  0  0  0  0  0
   12.0537   31.2677   24.0338 H   0  0  0  0  0  0  0  0  0  0  0  0
   11.9288   32.3382   21.4476 H   0  0  0  0  0  0  0  0  0  0  0  0
   11.3078   30.7259   22.0407 H   0  0  0  0  0  0  0  0  0  0  0  0
    9.1728   32.0091   22.6519 H   0  0  0  0  0  0  0  0  0  0  0  0
    9.8544   33.2827   21.5016 H   0  0  0  0  0  0  0  0  0  0  0  0
    9.1688   30.4277   20.7911 H   0  0  0  0  0  0  0  0  0  0  0  0
    8.1984   31.9562   20.4316 H   0  0  0  0  0  0  0  0  0  0  0  0
   10.3702   32.6999   19.2263 H   0  0  0  0  0  0  0  0  0  0  0  0
   10.6786   30.8986   19.1684 H   0  0  0  0  0  0  0  0  0  0  0  0
    7.9987   31.8758   18.2868 H   0  0  0  0  0  0  0  0  0  0  0  0
    9.4299   32.1873   17.2117 H   0  0  0  0  0  0  0  0  0  0  0  0
    9.1975   30.1233   16.4216 H   0  0  0  0  0  0  0  0  0  0  0  0
    9.6828   29.5299   18.0728 H   0  0  0  0  0  0  0  0  0  0  0  0
  1  2  1  0
  2  3  1  0
  3  4  1  0
  4  5  1  0
  5  6  1  0
  6  7  1  0
  7  8  1  0
  8  9  1  0
  9 10  1  0
 10 11  1  0
 11 12  1  0
 12 13  1  0
 13 14  1  0
 14 15  1  0
 15 16  1  0
 16 17  1  0
 17 18  1  0
 18 19  2  0
 18 20  1  0
  1 21  1  0
  1 22  1  0
  1 23  1  0
  2 24  1  0
  2 25  1  0
  3 26  1  0
  3 27  1  0
  4 28  1  0
  4 29  1  0
  5 30  1  0
  5 31  1  0
  6 32  1  0
  6 33  1  0
  7 34  1  0
  7 35  1  0
  8 36  1  0
  8 37  1  0
  9 38  1  0
  9 39  1  0
 10 40  1  0
 10 41  1  0
 11 42  1  0
 11 43  1  0
 12 44  1  0
 12 45  1  0
 13 46  1  0
 13 47  1  0
 14 48  1  0
 14 49  1  0
 15 50  1  0
 15 51  1  0
 16 52  1  0
 16 53  1  0
 17 54  1  0
 17 55  1  0
M  CHG  1  20  -1
M  END
>  <meeko>  (12) 
{"is_sidechain": [false], "free_energy": -6.029, "intermolecular_energy": -11.715, "internal_energy": -1.273}

$$$$
stearate_Clobe_run01
     RDKit          3D

 55 54  0  0  0  0  0  0  0  0999 V2000
    8.1670   29.2650   17.1920 C   0  0  0  0  0  0  0  0  0  0  0  0
    6.9810   29.6380   18.0690 C   0  0  0  0  0  0  0  0  0  0  0  0
    5.6810   29.8390   17.2870 C   0  0  0  0  0  0  0  0  0  0  0  0
    5.0510   31.2180   17.5010 C   0  0  0  0  0  0  0  0  0  0  0  0
    6.0430   32.1830   18.1550 C   0  0  0  0  0  0  0  0  0  0  0  0
    6.5760   33.2510   17.1950 C   0  0  0  0  0  0  0  0  0  0  0  0
    7.9600   32.9770   16.5970 C   0  0  0  0  0  0  0  0  0  0  0  0
    9.1520   33.4640   17.4260 C   0  0  0  0  0  0  0  0  0  0  0  0
   10.3900   32.5800   17.2880 C   0  0  0  0  0  0  0  0  0  0  0  0
   10.9040   32.0000   18.6120 C   0  0  0  0  0  0  0  0  0  0  0  0
    9.8170   31.4710   19.5560 C   0  0  0  0  0  0  0  0  0  0  0  0
    9.8180   32.1770   20.9150 C   0  0  0  0  0  0  0  0  0  0  0  0
   10.4670   31.3520   22.0310 C   0  0  0  0  0  0  0  0  0  0  0  0
   10.8350   32.1180   23.3060 C   0  0  0  0  0  0  0  0  0  0  0  0
   12.3280   32.1740   23.6450 C   0  0  0  0  0  0  0  0  0  0  0  0
   12.6450   33.0240   24.8790 C   0  0  0  0  0  0  0  0  0  0  0  0
   11.4630   33.1090   25.8420 C   0  0  0  0  0  0  0  0  0  0  0  0
   11.8630   33.5900   27.2100 C   0  0  0  0  0  0  0  0  0  0  0  0
   11.5260   34.6400   27.7290 O   0  0  0  0  0  0  0  0  0  0  0  0
   12.6460   32.7170   27.8700 O   0  0  0  0  0  0  0  0  0  0  0  0
    9.0231   28.9958   17.8281 H   0  0  0  0  0  0  0  0  0  0  0  0
    7.8982   28.4080   16.5569 H   0  0  0  0  0  0  0  0  0  0  0  0
    8.4371   30.1216   16.5569 H   0  0  0  0  0  0  0  0  0  0  0  0
    6.8246   28.8339   18.8031 H   0  0  0  0  0  0  0  0  0  0  0  0
    7.2223   30.5990   18.5468 H   0  0  0  0  0  0  0  0  0  0  0  0
    5.8960   29.7162   16.2152 H   0  0  0  0  0  0  0  0  0  0  0  0
    4.9617   29.0923   17.6544 H   0  0  0  0  0  0  0  0  0  0  0  0
    4.7416   31.6263   16.5276 H   0  0  0  0  0  0  0  0  0  0  0  0
    4.1830   31.1054   18.1673 H   0  0  0  0  0  0  0  0  0  0  0  0
    5.5384   32.6874   18.9922 H   0  0  0  0  0  0  0  0  0  0  0  0
    6.9051   31.5862   18.4877 H   0  0  0  0  0  0  0  0  0  0  0  0
    5.8615   33.3450   16.3639 H   0  0  0  0  0  0  0  0  0  0  0  0
    6.6852   34.1660   17.7957 H   0  0  0  0  0  0  0  0  0  0  0  0
    8.0618   31.8896   16.4658 H   0  0  0  0  0  0  0  0  0  0  0  0
    7.9974   33.5463   15.6565 H   0  0  0  0  0  0  0  0  0  0  0  0
    9.4120   34.4813   17.0983 H   0  0  0  0  0  0  0  0  0  0  0  0
    8.8469   33.4320   18.4824 H   0  0  0  0  0  0  0  0  0  0  0  0
   10.1424   31.7430   16.6186 H   0  0  0  0  0  0  0  0  0  0  0  0
   11.1919   33.2213   16.8933 H   0  0  0  0  0  0  0  0  0  0  0  0
   11.5861   31.1693   18.3782 H   0  0  0  0  0  0  0  0  0  0  0  0
   11.3919   32.8314   19.1418 H   0  0  0  0  0  0  0  0  0  0  0  0
    8.8358   31.6218   19.0821 H   0  0  0  0  0  0  0  0  0  0  0  0
   10.0233   30.4055   19.7355 H   0  0  0  0  0  0  0  0  0  0  0  0
   10.3699   33.1233   20.8155 H   0  0  0  0  0  0  0  0  0  0  0  0
    8.7670   32.3352   21.1985 H   0  0  0  0  0  0  0  0  0  0  0  0
    9.7652   30.5522   22.3098 H   0  0  0  0  0  0  0  0  0  0  0  0
   11.4199   30.9909   21.6168 H   0  0  0  0  0  0  0  0  0  0  0  0
   10.4758   33.1516   23.1938 H   0  0  0  0  0  0  0  0  0  0  0  0
   10.3625   31.5661   24.1319 H   0  0  0  0  0  0  0  0  0  0  0  0
   12.6816   31.1487   23.8288 H   0  0  0  0  0  0  0  0  0  0  0  0
   12.8355   32.6446   22.7900 H   0  0  0  0  0  0  0  0  0  0  0  0
   13.5001   32.5766   25.4068 H   0  0  0  0  0  0  0  0  0  0  0  0
   12.8742   34.0437   24.5360 H   0  0  0  0  0  0  0  0  0  0  0  0
   10.7202   33.8062   25.4270 H   0  0  0  0  0  0  0  0  0  0  0  0
   11.0511   32.0951   25.9533 H   0  0  0  0  0  0  0  0  0  0  0  0
  1  2  1  0
  2  3  1  0
  3  4  1  0
  4  5  1  0
  5  6  1  0
  6  7  1  0
  7  8  1  0
  8  9  1  0
  9 10  1  0
 10 11  1  0
 11 12  1  0
 12 13  1  0
 13 14  1  0
 14 15  1  0
 15 16  1  0
 16 17  1  0
 17 18  1  0
 18 19  2  0
 18 20  1  0
  1 21  1  0
  1 22  1  0
  1 23  1  0
  2 24  1  0
  2 25  1  0
  3 26  1  0
  3 27  1  0
  4 28  1  0
  4 29  1  0
  5 30  1  0
  5 31  1  0
  6 32  1  0
  6 33  1  0
  7 34  1  0
  7 35  1  0
  8 36  1  0
  8 37  1  0
  9 38  1  0
  9 39  1  0
 10 40  1  0
 10 41  1  0
 11 42  1  0
 11 43  1  0
 12 44  1  0
 12 45  1  0
 13 46  1  0
 13 47  1  0
 14 48  1  0
 14 49  1  0
 15 50  1  0
 15 51  1  0
 16 52  1  0
 16 53  1  0
 17 54  1  0
 17 55  1  0
M  CHG  1  20  -1
M  END
>  <meeko>  (13) 
{"is_sidechain": [false], "free_energy": -6.022, "intermolecular_energy": -11.419, "internal_energy": -1.555}

$$$$
stearate_Clobe_run01
     RDKit          3D

 55 54  0  0  0  0  0  0  0  0999 V2000
    9.7110   35.9880   29.8880 C   0  0  0  0  0  0  0  0  0  0  0  0
   10.3110   34.6440   30.2720 C   0  0  0  0  0  0  0  0  0  0  0  0
   11.7030   34.7530   30.8990 C   0  0  0  0  0  0  0  0  0  0  0  0
   12.8380   34.4970   29.9040 C   0  0  0  0  0  0  0  0  0  0  0  0
   13.3200   35.8020   29.2660 C   0  0  0  0  0  0  0  0  0  0  0  0
   13.0970   35.8570   27.7510 C   0  0  0  0  0  0  0  0  0  0  0  0
   12.6030   34.5590   27.1040 C   0  0  0  0  0  0  0  0  0  0  0  0
   11.1690   34.5860   26.5680 C   0  0  0  0  0  0  0  0  0  0  0  0
   10.5320   33.2020   26.4650 C   0  0  0  0  0  0  0  0  0  0  0  0
   10.4900   32.6280   25.0430 C   0  0  0  0  0  0  0  0  0  0  0  0
   11.8600   32.3050   24.4330 C   0  0  0  0  0  0  0  0  0  0  0  0
   11.8080   32.1520   22.9100 C   0  0  0  0  0  0  0  0  0  0  0  0
   10.4000   32.3170   22.3280 C   0  0  0  0  0  0  0  0  0  0  0  0
   10.0880   31.4860   21.0790 C   0  0  0  0  0  0  0  0  0  0  0  0
    8.9020   31.9670   20.2350 C   0  0  0  0  0  0  0  0  0  0  0  0
    8.7130   31.1780   18.9360 C   0  0  0  0  0  0  0  0  0  0  0  0
    9.9140   31.3090   18.0020 C   0  0  0  0  0  0  0  0  0  0  0  0
    9.9460   32.6270   17.2790 C   0  0  0  0  0  0  0  0  0  0  0  0
    9.1310   33.0180   16.4610 O   0  0  0  0  0  0  0  0  0  0  0  0
   10.9860   33.4020   17.6360 O   0  0  0  0  0  0  0  0  0  0  0  0
    9.4596   36.5510   30.7989 H   0  0  0  0  0  0  0  0  0  0  0  0
   10.4399   36.5586   29.2937 H   0  0  0  0  0  0  0  0  0  0  0  0
    8.7996   35.8263   29.2937 H   0  0  0  0  0  0  0  0  0  0  0  0
    9.6404   34.1574   30.9956 H   0  0  0  0  0  0  0  0  0  0  0  0
   10.4186   34.0613   29.3452 H   0  0  0  0  0  0  0  0  0  0  0  0
   11.8219   35.7660   31.3109 H   0  0  0  0  0  0  0  0  0  0  0  0
   11.7711   33.9782   31.6768 H   0  0  0  0  0  0  0  0  0  0  0  0
   13.6788   34.0242   30.4327 H   0  0  0  0  0  0  0  0  0  0  0  0
   12.4610   33.8386   29.1076 H   0  0  0  0  0  0  0  0  0  0  0  0
   12.7760   36.6384   29.7292 H   0  0  0  0  0  0  0  0  0  0  0  0
   14.4047   35.8661   29.4373 H   0  0  0  0  0  0  0  0  0  0  0  0
   12.3524   36.6407   27.5473 H   0  0  0  0  0  0  0  0  0  0  0  0
   14.0851   36.0545   27.3097 H   0  0  0  0  0  0  0  0  0  0  0  0
   13.2731   34.3243   26.2638 H   0  0  0  0  0  0  0  0  0  0  0  0
   12.6087   33.8048   27.9047 H   0  0  0  0  0  0  0  0  0  0  0  0
   10.5565   35.2021   27.2427 H   0  0  0  0  0  0  0  0  0  0  0  0
   11.2116   34.9996   25.5496 H   0  0  0  0  0  0  0  0  0  0  0  0
   11.1072   32.5105   27.0983 H   0  0  0  0  0  0  0  0  0  0  0  0
    9.4869   33.3124   26.7900 H   0  0  0  0  0  0  0  0  0  0  0  0
    9.8999   31.7000   25.0670 H   0  0  0  0  0  0  0  0  0  0  0  0
   10.0481   33.4106   24.4087 H   0  0  0  0  0  0  0  0  0  0  0  0
   12.5565   33.1194   24.6812 H   0  0  0  0  0  0  0  0  0  0  0  0
   12.1919   31.3437   24.8522 H   0  0  0  0  0  0  0  0  0  0  0  0
   12.4622   32.9138   22.4608 H   0  0  0  0  0  0  0  0  0  0  0  0
   12.1377   31.1291   22.6756 H   0  0  0  0  0  0  0  0  0  0  0  0
    9.6780   32.0354   23.1086 H   0  0  0  0  0  0  0  0  0  0  0  0
   10.3318   33.3678   22.0098 H   0  0  0  0  0  0  0  0  0  0  0  0
   10.9821   31.4915   20.4383 H   0  0  0  0  0  0  0  0  0  0  0  0
    9.8067   30.4884   21.4473 H   0  0  0  0  0  0  0  0  0  0  0  0
    7.9859   31.8712   20.8363 H   0  0  0  0  0  0  0  0  0  0  0  0
    9.1098   33.0094   19.9516 H   0  0  0  0  0  0  0  0  0  0  0  0
    8.5713   30.1157   19.1841 H   0  0  0  0  0  0  0  0  0  0  0  0
    7.8346   31.5882   18.4163 H   0  0  0  0  0  0  0  0  0  0  0  0
   10.8344   31.2113   18.5965 H   0  0  0  0  0  0  0  0  0  0  0  0
    9.8332   30.5161   17.2438 H   0  0  0  0  0  0  0  0  0  0  0  0
  1  2  1  0
  2  3  1  0
  3  4  1  0
  4  5  1  0
  5  6  1  0
  6  7  1  0
  7  8  1  0
  8  9  1  0
  9 10  1  0
 10 11  1  0
 11 12  1  0
 12 13  1  0
 13 14  1  0
 14 15  1  0
 15 16  1  0
 16 17  1  0
 17 18  1  0
 18 19  2  0
 18 20  1  0
  1 21  1  0
  1 22  1  0
  1 23  1  0
  2 24  1  0
  2 25  1  0
  3 26  1  0
  3 27  1  0
  4 28  1  0
  4 29  1  0
  5 30  1  0
  5 31  1  0
  6 32  1  0
  6 33  1  0
  7 34  1  0
  7 35  1  0
  8 36  1  0
  8 37  1  0
  9 38  1  0
  9 39  1  0
 10 40  1  0
 10 41  1  0
 11 42  1  0
 11 43  1  0
 12 44  1  0
 12 45  1  0
 13 46  1  0
 13 47  1  0
 14 48  1  0
 14 49  1  0
 15 50  1  0
 15 51  1  0
 16 52  1  0
 16 53  1  0
 17 54  1  0
 17 55  1  0
M  CHG  1  20  -1
M  END
>  <meeko>  (14) 
{"is_sidechain": [false], "free_energy": -5.987, "intermolecular_energy": -11.526, "internal_energy": -1.38}

$$$$
stearate_Clobe_run01
     RDKit          3D

 55 54  0  0  0  0  0  0  0  0999 V2000
   12.5010   34.3200   28.9870 C   0  0  0  0  0  0  0  0  0  0  0  0
   12.6210   33.3390   27.8300 C   0  0  0  0  0  0  0  0  0  0  0  0
   12.0460   33.8710   26.5150 C   0  0  0  0  0  0  0  0  0  0  0  0
   10.6320   33.3610   26.2220 C   0  0  0  0  0  0  0  0  0  0  0  0
   10.5420   32.7580   24.8180 C   0  0  0  0  0  0  0  0  0  0  0  0
   11.8820   32.2310   24.2950 C   0  0  0  0  0  0  0  0  0  0  0  0
   11.9460   31.9550   22.7890 C   0  0  0  0  0  0  0  0  0  0  0  0
   10.6450   31.4610   22.1480 C   0  0  0  0  0  0  0  0  0  0  0  0
   10.5400   31.7860   20.6590 C   0  0  0  0  0  0  0  0  0  0  0  0
    9.1640   31.5000   20.0450 C   0  0  0  0  0  0  0  0  0  0  0  0
    9.0470   31.7980   18.5440 C   0  0  0  0  0  0  0  0  0  0  0  0
    9.3430   30.5730   17.6730 C   0  0  0  0  0  0  0  0  0  0  0  0
    8.1930   30.2030   16.7300 C   0  0  0  0  0  0  0  0  0  0  0  0
    6.9290   29.6500   17.3950 C   0  0  0  0  0  0  0  0  0  0  0  0
    5.6040   30.0010   16.7090 C   0  0  0  0  0  0  0  0  0  0  0  0
    4.6670   30.8450   17.5780 C   0  0  0  0  0  0  0  0  0  0  0  0
    5.4310   31.8030   18.4890 C   0  0  0  0  0  0  0  0  0  0  0  0
    5.2780   31.4640   19.9460 C   0  0  0  0  0  0  0  0  0  0  0  0
    5.6050   32.1680   20.8860 O   0  0  0  0  0  0  0  0  0  0  0  0
    4.6970   30.2680   20.1530 O   0  0  0  0  0  0  0  0  0  0  0  0
   12.5678   33.7737   29.9394 H   0  0  0  0  0  0  0  0  0  0  0  0
   13.3157   35.0568   28.9290 H   0  0  0  0  0  0  0  0  0  0  0  0
   11.5327   34.8387   28.9290 H   0  0  0  0  0  0  0  0  0  0  0  0
   13.6860   33.1102   27.6768 H   0  0  0  0  0  0  0  0  0  0  0  0
   12.0369   32.4471   28.1007 H   0  0  0  0  0  0  0  0  0  0  0  0
   12.0175   34.9695   26.5654 H   0  0  0  0  0  0  0  0  0  0  0  0
   12.6969   33.5101   25.7051 H   0  0  0  0  0  0  0  0  0  0  0  0
   10.3679   32.5904   26.9613 H   0  0  0  0  0  0  0  0  0  0  0  0
    9.9355   34.2103   26.2821 H   0  0  0  0  0  0  0  0  0  0  0  0
    9.8249   31.9243   24.8419 H   0  0  0  0  0  0  0  0  0  0  0  0
   10.2222   33.5623   24.1391 H   0  0  0  0  0  0  0  0  0  0  0  0
   12.6549   32.9759   24.5351 H   0  0  0  0  0  0  0  0  0  0  0  0
   12.0328   31.2576   24.7846 H   0  0  0  0  0  0  0  0  0  0  0  0
   12.2369   32.8892   22.2863 H   0  0  0  0  0  0  0  0  0  0  0  0
   12.6708   31.1370   22.6647 H   0  0  0  0  0  0  0  0  0  0  0  0
   10.5882   30.3694   22.2714 H   0  0  0  0  0  0  0  0  0  0  0  0
    9.8170   31.9804   22.6526 H   0  0  0  0  0  0  0  0  0  0  0  0
   10.7621   32.8548   20.5234 H   0  0  0  0  0  0  0  0  0  0  0  0
   11.2571   31.1309   20.1427 H   0  0  0  0  0  0  0  0  0  0  0  0
    8.9363   30.4350   20.1999 H   0  0  0  0  0  0  0  0  0  0  0  0
    8.4572   32.1764   20.5479 H   0  0  0  0  0  0  0  0  0  0  0  0
    8.0237   32.1414   18.3322 H   0  0  0  0  0  0  0  0  0  0  0  0
    9.7935   32.5679   18.2990 H   0  0  0  0  0  0  0  0  0  0  0  0
   10.2364   30.7840   17.0670 H   0  0  0  0  0  0  0  0  0  0  0  0
    9.4923   29.7207   18.3522 H   0  0  0  0  0  0  0  0  0  0  0  0
    7.9110   31.1082   16.1723 H   0  0  0  0  0  0  0  0  0  0  0  0
    8.5774   29.3869   16.1005 H   0  0  0  0  0  0  0  0  0  0  0  0
    7.0145   28.5537   17.4222 H   0  0  0  0  0  0  0  0  0  0  0  0
    6.8843   30.1211   18.3880 H   0  0  0  0  0  0  0  0  0  0  0  0
    5.8266   30.5635   15.7903 H   0  0  0  0  0  0  0  0  0  0  0  0
    5.0861   29.0524   16.5044 H   0  0  0  0  0  0  0  0  0  0  0  0
    4.0072   31.4311   16.9214 H   0  0  0  0  0  0  0  0  0  0  0  0
    4.0905   30.1596   18.2167 H   0  0  0  0  0  0  0  0  0  0  0  0
    6.4988   31.7606   18.2280 H   0  0  0  0  0  0  0  0  0  0  0  0
    5.0147   32.8097   18.3365 H   0  0  0  0  0  0  0  0  0  0  0  0
  1  2  1  0
  2  3  1  0
  3  4  1  0
  4  5  1  0
  5  6  1  0
  6  7  1  0
  7  8  1  0
  8  9  1  0
  9 10  1  0
 10 11  1  0
 11 12  1  0
 12 13  1  0
 13 14  1  0
 14 15  1  0
 15 16  1  0
 16 17  1  0
 17 18  1  0
 18 19  2  0
 18 20  1  0
  1 21  1  0
  1 22  1  0
  1 23  1  0
  2 24  1  0
  2 25  1  0
  3 26  1  0
  3 27  1  0
  4 28  1  0
  4 29  1  0
  5 30  1  0
  5 31  1  0
  6 32  1  0
  6 33  1  0
  7 34  1  0
  7 35  1  0
  8 36  1  0
  8 37  1  0
  9 38  1  0
  9 39  1  0
 10 40  1  0
 10 41  1  0
 11 42  1  0
 11 43  1  0
 12 44  1  0
 12 45  1  0
 13 46  1  0
 13 47  1  0
 14 48  1  0
 14 49  1  0
 15 50  1  0
 15 51  1  0
 16 52  1  0
 16 53  1  0
 17 54  1  0
 17 55  1  0
M  CHG  1  20  -1
M  END
>  <meeko>  (15) 
{"is_sidechain": [false], "free_energy": -5.984, "intermolecular_energy": -11.83, "internal_energy": -1.071}

$$$$
stearate_Clobe_run01
     RDKit          3D

 55 54  0  0  0  0  0  0  0  0999 V2000
    9.7170   35.9930   30.1110 C   0  0  0  0  0  0  0  0  0  0  0  0
   10.4500   34.7060   30.4600 C   0  0  0  0  0  0  0  0  0  0  0  0
   11.6200   34.3960   29.5240 C   0  0  0  0  0  0  0  0  0  0  0  0
   12.0610   35.5990   28.6860 C   0  0  0  0  0  0  0  0  0  0  0  0
   12.2040   35.2220   27.2100 C   0  0  0  0  0  0  0  0  0  0  0  0
   10.8850   34.7840   26.5630 C   0  0  0  0  0  0  0  0  0  0  0  0
   10.9080   33.4190   25.8670 C   0  0  0  0  0  0  0  0  0  0  0  0
   12.2940   32.8790   25.5040 C   0  0  0  0  0  0  0  0  0  0  0  0
   12.3500   32.2250   24.1250 C   0  0  0  0  0  0  0  0  0  0  0  0
   10.9990   32.1550   23.4030 C   0  0  0  0  0  0  0  0  0  0  0  0
   11.0480   31.5650   21.9870 C   0  0  0  0  0  0  0  0  0  0  0  0
    9.7630   31.8210   21.1940 C   0  0  0  0  0  0  0  0  0  0  0  0
    9.9480   31.7040   19.6780 C   0  0  0  0  0  0  0  0  0  0  0  0
    8.6830   31.4010   18.8680 C   0  0  0  0  0  0  0  0  0  0  0  0
    8.8600   30.4480   17.6820 C   0  0  0  0  0  0  0  0  0  0  0  0
    7.7570   30.5680   16.6270 C   0  0  0  0  0  0  0  0  0  0  0  0
    6.6740   29.5060   16.8000 C   0  0  0  0  0  0  0  0  0  0  0  0
    5.5720   29.9470   17.7240 C   0  0  0  0  0  0  0  0  0  0  0  0
    4.6140   30.6380   17.4220 O   0  0  0  0  0  0  0  0  0  0  0  0
    5.7120   29.4770   18.9770 O   0  0  0  0  0  0  0  0  0  0  0  0
    9.4227   36.5098   31.0364 H   0  0  0  0  0  0  0  0  0  0  0  0
   10.3797   36.6443   29.5222 H   0  0  0  0  0  0  0  0  0  0  0  0
    8.8188   35.7553   29.5222 H   0  0  0  0  0  0  0  0  0  0  0  0
   10.8384   34.7938   31.4854 H   0  0  0  0  0  0  0  0  0  0  0  0
    9.7266   33.8838   30.3564 H   0  0  0  0  0  0  0  0  0  0  0  0
   12.4740   34.0620   30.1316 H   0  0  0  0  0  0  0  0  0  0  0  0
   11.2798   33.6187   28.8239 H   0  0  0  0  0  0  0  0  0  0  0  0
   11.3103   36.3974   28.7814 H   0  0  0  0  0  0  0  0  0  0  0  0
   13.0394   35.9408   29.0548 H   0  0  0  0  0  0  0  0  0  0  0  0
   12.5877   36.0956   26.6626 H   0  0  0  0  0  0  0  0  0  0  0  0
   12.8912   34.3646   27.1589 H   0  0  0  0  0  0  0  0  0  0  0  0
   10.1175   34.7492   27.3502 H   0  0  0  0  0  0  0  0  0  0  0  0
   10.6795   35.5206   25.7723 H   0  0  0  0  0  0  0  0  0  0  0  0
   10.4268   32.6908   26.5364 H   0  0  0  0  0  0  0  0  0  0  0  0
   10.3836   33.5625   24.9107 H   0  0  0  0  0  0  0  0  0  0  0  0
   13.0092   33.7145   25.5226 H   0  0  0  0  0  0  0  0  0  0  0  0
   12.5422   32.1016   26.2416 H   0  0  0  0  0  0  0  0  0  0  0  0
   13.0458   32.8022   23.4983 H   0  0  0  0  0  0  0  0  0  0  0  0
   12.6765   31.1864   24.2826 H   0  0  0  0  0  0  0  0  0  0  0  0
   10.3212   31.5345   24.0076 H   0  0  0  0  0  0  0  0  0  0  0  0
   10.6573   33.1945   23.2904 H   0  0  0  0  0  0  0  0  0  0  0  0
   11.8915   32.0187   21.4459 H   0  0  0  0  0  0  0  0  0  0  0  0
   11.1657   30.4757   22.0853 H   0  0  0  0  0  0  0  0  0  0  0  0
    9.0066   31.0876   21.5102 H   0  0  0  0  0  0  0  0  0  0  0  0
    9.4537   32.8556   21.4037 H   0  0  0  0  0  0  0  0  0  0  0  0
   10.3599   32.6571   19.3147 H   0  0  0  0  0  0  0  0  0  0  0  0
   10.6113   30.8397   19.5262 H   0  0  0  0  0  0  0  0  0  0  0  0
    7.9443   30.9558   19.5507 H   0  0  0  0  0  0  0  0  0  0  0  0
    8.3706   32.3620   18.4334 H   0  0  0  0  0  0  0  0  0  0  0  0
    9.8253   30.6665   17.2018 H   0  0  0  0  0  0  0  0  0  0  0  0
    8.8127   29.4244   18.0819 H   0  0  0  0  0  0  0  0  0  0  0  0
    7.2942   31.5624   16.7102 H   0  0  0  0  0  0  0  0  0  0  0  0
    8.2180   30.4217   15.6390 H   0  0  0  0  0  0  0  0  0  0  0  0
    6.2390   29.2829   15.8146 H   0  0  0  0  0  0  0  0  0  0  0  0
    7.1467   28.6185   17.2459 H   0  0  0  0  0  0  0  0  0  0  0  0
  1  2  1  0
  2  3  1  0
  3  4  1  0
  4  5  1  0
  5  6  1  0
  6  7  1  0
  7  8  1  0
  8  9  1  0
  9 10  1  0
 10 11  1  0
 11 12  1  0
 12 13  1  0
 13 14  1  0
 14 15  1  0
 15 16  1  0
 16 17  1  0
 17 18  1  0
 18 19  2  0
 18 20  1  0
  1 21  1  0
  1 22  1  0
  1 23  1  0
  2 24  1  0
  2 25  1  0
  3 26  1  0
  3 27  1  0
  4 28  1  0
  4 29  1  0
  5 30  1  0
  5 31  1  0
  6 32  1  0
  6 33  1  0
  7 34  1  0
  7 35  1  0
  8 36  1  0
  8 37  1  0
  9 38  1  0
  9 39  1  0
 10 40  1  0
 10 41  1  0
 11 42  1  0
 11 43  1  0
 12 44  1  0
 12 45  1  0
 13 46  1  0
 13 47  1  0
 14 48  1  0
 14 49  1  0
 15 50  1  0
 15 51  1  0
 16 52  1  0
 16 53  1  0
 17 54  1  0
 17 55  1  0
M  CHG  1  20  -1
M  END
>  <meeko>  (16) 
{"is_sidechain": [false], "free_energy": -5.961, "intermolecular_energy": -11.956, "internal_energy": -0.9}

$$$$
stearate_Clobe_run01
     RDKit          3D

 55 54  0  0  0  0  0  0  0  0999 V2000
    8.1490   29.8560   16.8090 C   0  0  0  0  0  0  0  0  0  0  0  0
    7.0850   29.5070   17.8390 C   0  0  0  0  0  0  0  0  0  0  0  0
    6.5130   30.7270   18.5650 C   0  0  0  0  0  0  0  0  0  0  0  0
    7.5550   31.8140   18.8360 C   0  0  0  0  0  0  0  0  0  0  0  0
    8.2850   31.5640   20.1580 C   0  0  0  0  0  0  0  0  0  0  0  0
    9.8110   31.5400   20.0150 C   0  0  0  0  0  0  0  0  0  0  0  0
   10.6020   31.5790   21.3270 C   0  0  0  0  0  0  0  0  0  0  0  0
   10.0900   32.5630   22.3840 C   0  0  0  0  0  0  0  0  0  0  0  0
   10.4900   32.1850   23.8090 C   0  0  0  0  0  0  0  0  0  0  0  0
   11.9880   32.3230   24.1040 C   0  0  0  0  0  0  0  0  0  0  0  0
   12.3290   32.9580   25.4580 C   0  0  0  0  0  0  0  0  0  0  0  0
   11.1010   33.5450   26.1620 C   0  0  0  0  0  0  0  0  0  0  0  0
   11.3590   34.9140   26.8000 C   0  0  0  0  0  0  0  0  0  0  0  0
   12.8140   35.2190   27.1710 C   0  0  0  0  0  0  0  0  0  0  0  0
   13.0220   36.0060   28.4690 C   0  0  0  0  0  0  0  0  0  0  0  0
   12.1050   35.5610   29.6110 C   0  0  0  0  0  0  0  0  0  0  0  0
   12.4530   34.1640   30.1210 C   0  0  0  0  0  0  0  0  0  0  0  0
   13.9030   34.0280   30.4950 C   0  0  0  0  0  0  0  0  0  0  0  0
   14.5280   34.7710   31.2330 O   0  0  0  0  0  0  0  0  0  0  0  0
   14.4930   32.9520   29.9440 O   0  0  0  0  0  0  0  0  0  0  0  0
    9.0725   30.1589   17.3241 H   0  0  0  0  0  0  0  0  0  0  0  0
    8.3518   28.9773   16.1791 H   0  0  0  0  0  0  0  0  0  0  0  0
    7.7919   30.6841   16.1791 H   0  0  0  0  0  0  0  0  0  0  0  0
    6.2610   28.9892   17.3263 H   0  0  0  0  0  0  0  0  0  0  0  0
    7.5667   28.8749   18.5996 H   0  0  0  0  0  0  0  0  0  0  0  0
    5.7121   31.1577   17.9461 H   0  0  0  0  0  0  0  0  0  0  0  0
    6.1422   30.3808   19.5410 H   0  0  0  0  0  0  0  0  0  0  0  0
    8.2888   31.8199   18.0165 H   0  0  0  0  0  0  0  0  0  0  0  0
    7.0385   32.7830   18.9012 H   0  0  0  0  0  0  0  0  0  0  0  0
    8.0133   32.3634   20.8631 H   0  0  0  0  0  0  0  0  0  0  0  0
    7.9766   30.5710   20.5168 H   0  0  0  0  0  0  0  0  0  0  0  0
   10.0860   30.6180   19.4818 H   0  0  0  0  0  0  0  0  0  0  0  0
   10.0763   32.4622   19.4773 H   0  0  0  0  0  0  0  0  0  0  0  0
   10.5790   30.5704   21.7653 H   0  0  0  0  0  0  0  0  0  0  0  0
   11.6105   31.9265   21.0582 H   0  0  0  0  0  0  0  0  0  0  0  0
   10.4986   33.5594   22.1598 H   0  0  0  0  0  0  0  0  0  0  0  0
    8.9911   32.5447   22.3395 H   0  0  0  0  0  0  0  0  0  0  0  0
    9.9409   32.8365   24.5047 H   0  0  0  0  0  0  0  0  0  0  0  0
   10.2425   31.1204   23.9326 H   0  0  0  0  0  0  0  0  0  0  0  0
   12.4346   31.3181   24.0768 H   0  0  0  0  0  0  0  0  0  0  0  0
   12.3898   33.0020   23.3375 H   0  0  0  0  0  0  0  0  0  0  0  0
   12.7716   32.1876   26.1065 H   0  0  0  0  0  0  0  0  0  0  0  0
   13.0308   33.7840   25.2702 H   0  0  0  0  0  0  0  0  0  0  0  0
   10.2937   33.6520   25.4226 H   0  0  0  0  0  0  0  0  0  0  0  0
   10.8330   32.8543   26.9750 H   0  0  0  0  0  0  0  0  0  0  0  0
   11.0242   35.6846   26.0900 H   0  0  0  0  0  0  0  0  0  0  0  0
   10.8059   34.9069   27.7508 H   0  0  0  0  0  0  0  0  0  0  0  0
   13.3450   34.2606   27.2690 H   0  0  0  0  0  0  0  0  0  0  0  0
   13.1977   35.8639   26.3667 H   0  0  0  0  0  0  0  0  0  0  0  0
   14.0658   35.8759   28.7907 H   0  0  0  0  0  0  0  0  0  0  0  0
   12.7783   37.0563   28.2512 H   0  0  0  0  0  0  0  0  0  0  0  0
   12.2019   36.2755   30.4417 H   0  0  0  0  0  0  0  0  0  0  0  0
   11.0754   35.5322   29.2250 H   0  0  0  0  0  0  0  0  0  0  0  0
   11.8390   33.9501   31.0083 H   0  0  0  0  0  0  0  0  0  0  0  0
   12.2516   33.4529   29.3063 H   0  0  0  0  0  0  0  0  0  0  0  0
  1  2  1  0
  2  3  1  0
  3  4  1  0
  4  5  1  0
  5  6  1  0
  6  7  1  0
  7  8  1  0
  8  9  1  0
  9 10  1  0
 10 11  1  0
 11 12  1  0
 12 13  1  0
 13 14  1  0
 14 15  1  0
 15 16  1  0
 16 17  1  0
 17 18  1  0
 18 19  2  0
 18 20  1  0
  1 21  1  0
  1 22  1  0
  1 23  1  0
  2 24  1  0
  2 25  1  0
  3 26  1  0
  3 27  1  0
  4 28  1  0
  4 29  1  0
  5 30  1  0
  5 31  1  0
  6 32  1  0
  6 33  1  0
  7 34  1  0
  7 35  1  0
  8 36  1  0
  8 37  1  0
  9 38  1  0
  9 39  1  0
 10 40  1  0
 10 41  1  0
 11 42  1  0
 11 43  1  0
 12 44  1  0
 12 45  1  0
 13 46  1  0
 13 47  1  0
 14 48  1  0
 14 49  1  0
 15 50  1  0
 15 51  1  0
 16 52  1  0
 16 53  1  0
 17 54  1  0
 17 55  1  0
M  CHG  1  20  -1
M  END
>  <meeko>  (17) 
{"is_sidechain": [false], "free_energy": -5.957, "intermolecular_energy": -11.835, "internal_energy": -1.013}

$$$$
stearate_Clobe_run01
     RDKit          3D

 55 54  0  0  0  0  0  0  0  0999 V2000
    8.4720   31.2460   16.2790 C   0  0  0  0  0  0  0  0  0  0  0  0
    8.4530   29.8990   16.9860 C   0  0  0  0  0  0  0  0  0  0  0  0
    7.0550   29.2850   17.0940 C   0  0  0  0  0  0  0  0  0  0  0  0
    5.9490   30.3260   17.2840 C   0  0  0  0  0  0  0  0  0  0  0  0
    5.5390   30.4340   18.7550 C   0  0  0  0  0  0  0  0  0  0  0  0
    5.7270   31.8380   19.3380 C   0  0  0  0  0  0  0  0  0  0  0  0
    7.1710   32.3480   19.3910 C   0  0  0  0  0  0  0  0  0  0  0  0
    8.0020   31.8700   20.5860 C   0  0  0  0  0  0  0  0  0  0  0  0
    9.4500   31.5390   20.2260 C   0  0  0  0  0  0  0  0  0  0  0  0
   10.3990   31.4630   21.4280 C   0  0  0  0  0  0  0  0  0  0  0  0
   10.1340   32.4960   22.5310 C   0  0  0  0  0  0  0  0  0  0  0  0
   10.8860   32.1830   23.8280 C   0  0  0  0  0  0  0  0  0  0  0  0
   10.3170   32.9070   25.0530 C   0  0  0  0  0  0  0  0  0  0  0  0
   11.3110   33.2010   26.1810 C   0  0  0  0  0  0  0  0  0  0  0  0
   11.4940   34.6790   26.5430 C   0  0  0  0  0  0  0  0  0  0  0  0
   12.6720   34.9400   27.4860 C   0  0  0  0  0  0  0  0  0  0  0  0
   12.2660   34.8460   28.9550 C   0  0  0  0  0  0  0  0  0  0  0  0
   13.1100   33.8710   29.7290 C   0  0  0  0  0  0  0  0  0  0  0  0
   13.3300   33.9020   30.9270 O   0  0  0  0  0  0  0  0  0  0  0  0
   13.6170   32.8870   28.9630 O   0  0  0  0  0  0  0  0  0  0  0  0
    8.4834   32.0525   17.0269 H   0  0  0  0  0  0  0  0  0  0  0  0
    9.3712   31.3170   15.6495 H   0  0  0  0  0  0  0  0  0  0  0  0
    7.5751   31.3424   15.6495 H   0  0  0  0  0  0  0  0  0  0  0  0
    9.0964   29.2035   16.4271 H   0  0  0  0  0  0  0  0  0  0  0  0
    8.8123   30.0673   18.0120 H   0  0  0  0  0  0  0  0  0  0  0  0
    6.8492   28.7213   16.1721 H   0  0  0  0  0  0  0  0  0  0  0  0
    7.0509   28.6393   17.9846 H   0  0  0  0  0  0  0  0  0  0  0  0
    6.3145   31.3049   16.9403 H   0  0  0  0  0  0  0  0  0  0  0  0
    5.0713   30.0133   16.6993 H   0  0  0  0  0  0  0  0  0  0  0  0
    4.4773   30.1597   18.8420 H   0  0  0  0  0  0  0  0  0  0  0  0
    6.1918   29.7561   19.3244 H   0  0  0  0  0  0  0  0  0  0  0  0
    5.1431   32.5397   18.7242 H   0  0  0  0  0  0  0  0  0  0  0  0
    5.3927   31.7753   20.3841 H   0  0  0  0  0  0  0  0  0  0  0  0
    7.6794   32.0188   18.4728 H   0  0  0  0  0  0  0  0  0  0  0  0
    7.0989   33.4408   19.4944 H   0  0  0  0  0  0  0  0  0  0  0  0
    8.0050   32.6633   21.3480 H   0  0  0  0  0  0  0  0  0  0  0  0
    7.5388   30.9422   20.9528 H   0  0  0  0  0  0  0  0  0  0  0  0
    9.4636   30.5652   19.7146 H   0  0  0  0  0  0  0  0  0  0  0  0
    9.8119   32.3612   19.5912 H   0  0  0  0  0  0  0  0  0  0  0  0
   10.3086   30.4602   21.8710 H   0  0  0  0  0  0  0  0  0  0  0  0
   11.4048   31.6803   21.0392 H   0  0  0  0  0  0  0  0  0  0  0  0
   10.4518   33.4853   22.1701 H   0  0  0  0  0  0  0  0  0  0  0  0
    9.0578   32.4714   22.7571 H   0  0  0  0  0  0  0  0  0  0  0  0
   10.8335   31.0991   24.0083 H   0  0  0  0  0  0  0  0  0  0  0  0
   11.9202   32.5336   23.6957 H   0  0  0  0  0  0  0  0  0  0  0  0
    9.9000   33.8665   24.7133 H   0  0  0  0  0  0  0  0  0  0  0  0
    9.5735   32.2206   25.4843 H   0  0  0  0  0  0  0  0  0  0  0  0
   10.9642   32.6737   27.0819 H   0  0  0  0  0  0  0  0  0  0  0  0
   12.2898   32.8614   25.8115 H   0  0  0  0  0  0  0  0  0  0  0  0
   11.6596   35.2460   25.6150 H   0  0  0  0  0  0  0  0  0  0  0  0
   10.5827   34.9960   27.0712 H   0  0  0  0  0  0  0  0  0  0  0  0
   13.4569   34.1955   27.2870 H   0  0  0  0  0  0  0  0  0  0  0  0
   13.0337   35.9621   27.3001 H   0  0  0  0  0  0  0  0  0  0  0  0
   12.3684   35.8410   29.4128 H   0  0  0  0  0  0  0  0  0  0  0  0
   11.2268   34.4871   28.9903 H   0  0  0  0  0  0  0  0  0  0  0  0
  1  2  1  0
  2  3  1  0
  3  4  1  0
  4  5  1  0
  5  6  1  0
  6  7  1  0
  7  8  1  0
  8  9  1  0
  9 10  1  0
 10 11  1  0
 11 12  1  0
 12 13  1  0
 13 14  1  0
 14 15  1  0
 15 16  1  0
 16 17  1  0
 17 18  1  0
 18 19  2  0
 18 20  1  0
  1 21  1  0
  1 22  1  0
  1 23  1  0
  2 24  1  0
  2 25  1  0
  3 26  1  0
  3 27  1  0
  4 28  1  0
  4 29  1  0
  5 30  1  0
  5 31  1  0
  6 32  1  0
  6 33  1  0
  7 34  1  0
  7 35  1  0
  8 36  1  0
  8 37  1  0
  9 38  1  0
  9 39  1  0
 10 40  1  0
 10 41  1  0
 11 42  1  0
 11 43  1  0
 12 44  1  0
 12 45  1  0
 13 46  1  0
 13 47  1  0
 14 48  1  0
 14 49  1  0
 15 50  1  0
 15 51  1  0
 16 52  1  0
 16 53  1  0
 17 54  1  0
 17 55  1  0
M  CHG  1  20  -1
M  END
>  <meeko>  (18) 
{"is_sidechain": [false], "free_energy": -5.936, "intermolecular_energy": -11.601, "internal_energy": -1.206}

$$$$
stearate_Clobe_run01
     RDKit          3D

 55 54  0  0  0  0  0  0  0  0999 V2000
   14.1240   35.6490   29.5200 C   0  0  0  0  0  0  0  0  0  0  0  0
   14.2040   34.3280   30.2690 C   0  0  0  0  0  0  0  0  0  0  0  0
   12.8380   33.7750   30.6830 C   0  0  0  0  0  0  0  0  0  0  0  0
   11.9250   34.8280   31.3160 C   0  0  0  0  0  0  0  0  0  0  0  0
   10.5480   34.8390   30.6490 C   0  0  0  0  0  0  0  0  0  0  0  0
   10.5240   34.1290   29.2910 C   0  0  0  0  0  0  0  0  0  0  0  0
   10.2960   35.0310   28.0730 C   0  0  0  0  0  0  0  0  0  0  0  0
   11.4400   35.0750   27.0550 C   0  0  0  0  0  0  0  0  0  0  0  0
   12.2100   33.7600   26.9480 C   0  0  0  0  0  0  0  0  0  0  0  0
   11.9900   33.0030   25.6320 C   0  0  0  0  0  0  0  0  0  0  0  0
   10.5240   32.8550   25.2050 C   0  0  0  0  0  0  0  0  0  0  0  0
   10.3720   32.5300   23.7150 C   0  0  0  0  0  0  0  0  0  0  0  0
   11.6410   31.9450   23.0860 C   0  0  0  0  0  0  0  0  0  0  0  0
   11.5400   31.5580   21.6070 C   0  0  0  0  0  0  0  0  0  0  0  0
   10.1230   31.4930   21.0280 C   0  0  0  0  0  0  0  0  0  0  0  0
   10.0550   31.8140   19.5320 C   0  0  0  0  0  0  0  0  0  0  0  0
    8.6480   32.2070   19.0890 C   0  0  0  0  0  0  0  0  0  0  0  0
    7.9080   31.0730   18.4350 C   0  0  0  0  0  0  0  0  0  0  0  0
    8.3430   29.9530   18.2310 O   0  0  0  0  0  0  0  0  0  0  0  0
    6.6470   31.3930   18.0910 O   0  0  0  0  0  0  0  0  0  0  0  0
   14.0738   36.4774   30.2420 H   0  0  0  0  0  0  0  0  0  0  0  0
   15.0167   35.7669   28.8881 H   0  0  0  0  0  0  0  0  0  0  0  0
   13.2236   35.6583   28.8881 H   0  0  0  0  0  0  0  0  0  0  0  0
   14.6960   33.5891   29.6194 H   0  0  0  0  0  0  0  0  0  0  0  0
   14.7702   34.5149   31.1934 H   0  0  0  0  0  0  0  0  0  0  0  0
   12.3390   33.3721   29.7893 H   0  0  0  0  0  0  0  0  0  0  0  0
   13.0170   32.9999   31.4427 H   0  0  0  0  0  0  0  0  0  0  0  0
   11.8038   34.6016   32.3856 H   0  0  0  0  0  0  0  0  0  0  0  0
   12.3865   35.8171   31.1789 H   0  0  0  0  0  0  0  0  0  0  0  0
    9.8327   34.3374   31.3174 H   0  0  0  0  0  0  0  0  0  0  0  0
   10.2822   35.8913   30.4701 H   0  0  0  0  0  0  0  0  0  0  0  0
   11.4903   33.6203   29.1586 H   0  0  0  0  0  0  0  0  0  0  0  0
    9.6615   33.4471   29.3246 H   0  0  0  0  0  0  0  0  0  0  0  0
    9.3944   34.6750   27.5529 H   0  0  0  0  0  0  0  0  0  0  0  0
   10.2082   36.0533   28.4694 H   0  0  0  0  0  0  0  0  0  0  0  0
   11.0184   35.3132   26.0673 H   0  0  0  0  0  0  0  0  0  0  0  0
   12.1514   35.8399   27.3999 H   0  0  0  0  0  0  0  0  0  0  0  0
   13.2834   33.9810   27.0426 H   0  0  0  0  0  0  0  0  0  0  0  0
   11.8341   33.1094   27.7514 H   0  0  0  0  0  0  0  0  0  0  0  0
   12.5245   33.5414   24.8355 H   0  0  0  0  0  0  0  0  0  0  0  0
   12.3656   31.9826   25.7985 H   0  0  0  0  0  0  0  0  0  0  0  0
   10.0671   32.0436   25.7906 H   0  0  0  0  0  0  0  0  0  0  0  0
   10.0259   33.8186   25.3874 H   0  0  0  0  0  0  0  0  0  0  0  0
    9.5572   31.8002   23.5989 H   0  0  0  0  0  0  0  0  0  0  0  0
   10.1600   33.4768   23.1966 H   0  0  0  0  0  0  0  0  0  0  0  0
   12.4412   32.6934   23.1843 H   0  0  0  0  0  0  0  0  0  0  0  0
   11.8342   31.0063   23.6259 H   0  0  0  0  0  0  0  0  0  0  0  0
   12.1083   32.2987   21.0252 H   0  0  0  0  0  0  0  0  0  0  0  0
   11.9367   30.5343   21.5392 H   0  0  0  0  0  0  0  0  0  0  0  0
    9.7303   30.4773   21.1837 H   0  0  0  0  0  0  0  0  0  0  0  0
    9.5271   32.2571   21.5486 H   0  0  0  0  0  0  0  0  0  0  0  0
   10.7396   32.6478   19.3173 H   0  0  0  0  0  0  0  0  0  0  0  0
   10.3418   30.9073   18.9791 H   0  0  0  0  0  0  0  0  0  0  0  0
    8.0799   32.5354   19.9718 H   0  0  0  0  0  0  0  0  0  0  0  0
    8.7461   33.0123   18.3461 H   0  0  0  0  0  0  0  0  0  0  0  0
  1  2  1  0
  2  3  1  0
  3  4  1  0
  4  5  1  0
  5  6  1  0
  6  7  1  0
  7  8  1  0
  8  9  1  0
  9 10  1  0
 10 11  1  0
 11 12  1  0
 12 13  1  0
 13 14  1  0
 14 15  1  0
 15 16  1  0
 16 17  1  0
 17 18  1  0
 18 19  2  0
 18 20  1  0
  1 21  1  0
  1 22  1  0
  1 23  1  0
  2 24  1  0
  2 25  1  0
  3 26  1  0
  3 27  1  0
  4 28  1  0
  4 29  1  0
  5 30  1  0
  5 31  1  0
  6 32  1  0
  6 33  1  0
  7 34  1  0
  7 35  1  0
  8 36  1  0
  8 37  1  0
  9 38  1  0
  9 39  1  0
 10 40  1  0
 10 41  1  0
 11 42  1  0
 11 43  1  0
 12 44  1  0
 12 45  1  0
 13 46  1  0
 13 47  1  0
 14 48  1  0
 14 49  1  0
 15 50  1  0
 15 51  1  0
 16 52  1  0
 16 53  1  0
 17 54  1  0
 17 55  1  0
M  CHG  1  20  -1
M  END
>  <meeko>  (19) 
{"is_sidechain": [false], "free_energy": -5.909, "intermolecular_energy": -11.202, "internal_energy": -1.553}

$$$$
stearate_Clobe_run01
     RDKit          3D

 55 54  0  0  0  0  0  0  0  0999 V2000
    5.2220   32.1660   18.0000 C   0  0  0  0  0  0  0  0  0  0  0  0
    5.2810   30.9410   18.9000 C   0  0  0  0  0  0  0  0  0  0  0  0
    6.1050   29.7920   18.3150 C   0  0  0  0  0  0  0  0  0  0  0  0
    6.4200   29.9680   16.8270 C   0  0  0  0  0  0  0  0  0  0  0  0
    7.9210   30.1550   16.5970 C   0  0  0  0  0  0  0  0  0  0  0  0
    8.7240   30.2850   17.8960 C   0  0  0  0  0  0  0  0  0  0  0  0
    9.3080   31.6730   18.1800 C   0  0  0  0  0  0  0  0  0  0  0  0
   10.0810   31.8130   19.4950 C   0  0  0  0  0  0  0  0  0  0  0  0
    9.1860   31.7830   20.7330 C   0  0  0  0  0  0  0  0  0  0  0  0
    9.8040   32.4330   21.9770 C   0  0  0  0  0  0  0  0  0  0  0  0
   11.0910   31.7710   22.4850 C   0  0  0  0  0  0  0  0  0  0  0  0
   11.4550   32.2000   23.9090 C   0  0  0  0  0  0  0  0  0  0  0  0
   10.2600   32.7240   24.7130 C   0  0  0  0  0  0  0  0  0  0  0  0
   10.5110   32.9710   26.2050 C   0  0  0  0  0  0  0  0  0  0  0  0
   11.7940   33.7340   26.5490 C   0  0  0  0  0  0  0  0  0  0  0  0
   11.5600   35.2100   26.8820 C   0  0  0  0  0  0  0  0  0  0  0  0
   11.9000   35.5360   28.3340 C   0  0  0  0  0  0  0  0  0  0  0  0
   13.3370   35.9410   28.5170 C   0  0  0  0  0  0  0  0  0  0  0  0
   13.8980   36.8700   27.9630 O   0  0  0  0  0  0  0  0  0  0  0  0
   13.9940   35.1730   29.4070 O   0  0  0  0  0  0  0  0  0  0  0  0
    5.1783   33.0741   18.6192 H   0  0  0  0  0  0  0  0  0  0  0  0
    6.1196   32.1980   17.3650 H   0  0  0  0  0  0  0  0  0  0  0  0
    4.3254   32.1116   17.3650 H   0  0  0  0  0  0  0  0  0  0  0  0
    5.7283   31.2361   19.8606 H   0  0  0  0  0  0  0  0  0  0  0  0
    4.2503   30.5741   19.0144 H   0  0  0  0  0  0  0  0  0  0  0  0
    7.0541   29.7266   18.8673 H   0  0  0  0  0  0  0  0  0  0  0  0
    5.5033   28.8765   18.4143 H   0  0  0  0  0  0  0  0  0  0  0  0
    6.0819   29.0751   16.2807 H   0  0  0  0  0  0  0  0  0  0  0  0
    5.8978   30.8657   16.4645 H   0  0  0  0  0  0  0  0  0  0  0  0
    8.2992   29.2859   16.0387 H   0  0  0  0  0  0  0  0  0  0  0  0
    8.0497   31.0948   16.0401 H   0  0  0  0  0  0  0  0  0  0  0  0
    8.0598   30.0203   18.7319 H   0  0  0  0  0  0  0  0  0  0  0  0
    9.5879   29.6136   17.7830 H   0  0  0  0  0  0  0  0  0  0  0  0
    9.9926   31.9262   17.3571 H   0  0  0  0  0  0  0  0  0  0  0  0
    8.4446   32.3491   18.2667 H   0  0  0  0  0  0  0  0  0  0  0  0
   10.8012   30.9846   19.5656 H   0  0  0  0  0  0  0  0  0  0  0  0
   10.5761   32.7951   19.4768 H   0  0  0  0  0  0  0  0  0  0  0  0
    8.2522   32.3136   20.4954 H   0  0  0  0  0  0  0  0  0  0  0  0
    9.0259   30.7229   20.9792 H   0  0  0  0  0  0  0  0  0  0  0  0
   10.0323   33.4817   21.7358 H   0  0  0  0  0  0  0  0  0  0  0  0
    9.0629   32.3203   22.7820 H   0  0  0  0  0  0  0  0  0  0  0  0
   10.9545   30.6796   22.4705 H   0  0  0  0  0  0  0  0  0  0  0  0
   11.9106   32.0878   21.8233 H   0  0  0  0  0  0  0  0  0  0  0  0
   11.8766   31.3321   24.4372 H   0  0  0  0  0  0  0  0  0  0  0  0
   12.1758   33.0266   23.8240 H   0  0  0  0  0  0  0  0  0  0  0  0
    9.9429   33.6762   24.2628 H   0  0  0  0  0  0  0  0  0  0  0  0
    9.5003   31.9298   24.6673 H   0  0  0  0  0  0  0  0  0  0  0  0
    9.6604   33.5463   26.5994 H   0  0  0  0  0  0  0  0  0  0  0  0
   10.6262   31.9748   26.6570 H   0  0  0  0  0  0  0  0  0  0  0  0
   12.2626   33.2514   27.4193 H   0  0  0  0  0  0  0  0  0  0  0  0
   12.4363   33.7030   25.6565 H   0  0  0  0  0  0  0  0  0  0  0  0
   12.1908   35.8256   26.2239 H   0  0  0  0  0  0  0  0  0  0  0  0
   10.4920   35.4247   26.7295 H   0  0  0  0  0  0  0  0  0  0  0  0
   11.2561   36.3624   28.6692 H   0  0  0  0  0  0  0  0  0  0  0  0
   11.7337   34.6245   28.9268 H   0  0  0  0  0  0  0  0  0  0  0  0
  1  2  1  0
  2  3  1  0
  3  4  1  0
  4  5  1  0
  5  6  1  0
  6  7  1  0
  7  8  1  0
  8  9  1  0
  9 10  1  0
 10 11  1  0
 11 12  1  0
 12 13  1  0
 13 14  1  0
 14 15  1  0
 15 16  1  0
 16 17  1  0
 17 18  1  0
 18 19  2  0
 18 20  1  0
  1 21  1  0
  1 22  1  0
  1 23  1  0
  2 24  1  0
  2 25  1  0
  3 26  1  0
  3 27  1  0
  4 28  1  0
  4 29  1  0
  5 30  1  0
  5 31  1  0
  6 32  1  0
  6 33  1  0
  7 34  1  0
  7 35  1  0
  8 36  1  0
  8 37  1  0
  9 38  1  0
  9 39  1  0
 10 40  1  0
 10 41  1  0
 11 42  1  0
 11 43  1  0
 12 44  1  0
 12 45  1  0
 13 46  1  0
 13 47  1  0
 14 48  1  0
 14 49  1  0
 15 50  1  0
 15 51  1  0
 16 52  1  0
 16 53  1  0
 17 54  1  0
 17 55  1  0
M  CHG  1  20  -1
M  END
>  <meeko>  (20) 
{"is_sidechain": [false], "free_energy": -5.868, "intermolecular_energy": -11.624, "internal_energy": -1.051}

$$$$
