stearate_Clobe_run03
     RDKit          3D

 55 54  0  0  0  0  0  0  0  0999 V2000
    8.3410   33.3930   17.8330 C   0  0  0  0  0  0  0  0  0  0  0  0
    8.5650   32.9600   16.3920 C   0  0  0  0  0  0  0  0  0  0  0  0
    8.6840   31.4430   16.2210 C   0  0  0  0  0  0  0  0  0  0  0  0
    8.7670   30.6890   17.5500 C   0  0  0  0  0  0  0  0  0  0  0  0
    7.8630   29.4540   17.5430 C   0  0  0  0  0  0  0  0  0  0  0  0
    6.6710   29.5780   16.5880 C   0  0  0  0  0  0  0  0  0  0  0  0
    5.3480   30.0090   17.2290 C   0  0  0  0  0  0  0  0  0  0  0  0
    5.0260   31.5050   17.1490 C   0  0  0  0  0  0  0  0  0  0  0  0
    4.9020   32.1740   18.5160 C   0  0  0  0  0  0  0  0  0  0  0  0
    5.3480   31.2960   19.6930 C   0  0  0  0  0  0  0  0  0  0  0  0
    6.3370   31.9590   20.6600 C   0  0  0  0  0  0  0  0  0  0  0  0
    5.6470   32.5890   21.8730 C   0  0  0  0  0  0  0  0  0  0  0  0
    6.5880   33.4280   22.7440 C   0  0  0  0  0  0  0  0  0  0  0  0
    8.0310   33.5560   22.2440 C   0  0  0  0  0  0  0  0  0  0  0  0
    9.1240   33.2140   23.2620 C   0  0  0  0  0  0  0  0  0  0  0  0
   10.2560   32.3600   22.6840 C   0  0  0  0  0  0  0  0  0  0  0  0
   10.0280   32.0180   21.2130 C   0  0  0  0  0  0  0  0  0  0  0  0
   11.2410   31.4090   20.5650 C   0  0  0  0  0  0  0  0  0  0  0  0
   11.5280   31.4640   19.3820 O   0  0  0  0  0  0  0  0  0  0  0  0
   12.0480   30.7800   21.4390 O   0  0  0  0  0  0  0  0  0  0  0  0
    8.7384   32.6248   18.5127 H   0  0  0  0  0  0  0  0  0  0  0  0
    8.8590   34.3463   18.0142 H   0  0  0  0  0  0  0  0  0  0  0  0
    7.2636   33.5210   18.0142 H   0  0  0  0  0  0  0  0  0  0  0  0
    7.7171   33.3131   15.7866 H   0  0  0  0  0  0  0  0  0  0  0  0
    9.5205   33.3979   16.0676 H   0  0  0  0  0  0  0  0  0  0  0  0
    7.8024   31.0835   15.6700 H   0  0  0  0  0  0  0  0  0  0  0  0
    9.6202   31.2488   15.6771 H   0  0  0  0  0  0  0  0  0  0  0  0
    9.8067   30.3717   17.7182 H   0  0  0  0  0  0  0  0  0  0  0  0
    8.4319   31.3614   18.3535 H   0  0  0  0  0  0  0  0  0  0  0  0
    8.4637   28.5838   17.2398 H   0  0  0  0  0  0  0  0  0  0  0  0
    7.4554   29.3441   18.5587 H   0  0  0  0  0  0  0  0  0  0  0  0
    6.9307   30.3193   15.8179 H   0  0  0  0  0  0  0  0  0  0  0  0
    6.4970   28.5663   16.1928 H   0  0  0  0  0  0  0  0  0  0  0  0
    4.5359   29.4615   16.7283 H   0  0  0  0  0  0  0  0  0  0  0  0
    5.4462   29.7808   18.3006 H   0  0  0  0  0  0  0  0  0  0  0  0
    5.8295   32.0048   16.5881 H   0  0  0  0  0  0  0  0  0  0  0  0
    4.0494   31.6002   16.6518 H   0  0  0  0  0  0  0  0  0  0  0  0
    5.5204   33.0837   18.5114 H   0  0  0  0  0  0  0  0  0  0  0  0
    3.8329   32.3837   18.6676 H   0  0  0  0  0  0  0  0  0  0  0  0
    4.4522   31.0106   20.2641 H   0  0  0  0  0  0  0  0  0  0  0  0
    5.8778   30.4385   19.2525 H   0  0  0  0  0  0  0  0  0  0  0  0
    7.0460   31.1967   21.0153 H   0  0  0  0  0  0  0  0  0  0  0  0
    6.8464   32.7655   20.1122 H   0  0  0  0  0  0  0  0  0  0  0  0
    4.8345   33.2376   21.5135 H   0  0  0  0  0  0  0  0  0  0  0  0
    5.2762   31.7640   22.4990 H   0  0  0  0  0  0  0  0  0  0  0  0
    6.1658   34.4412   22.8162 H   0  0  0  0  0  0  0  0  0  0  0  0
    6.6534   32.8979   23.7056 H   0  0  0  0  0  0  0  0  0  0  0  0
    8.1502   32.8828   21.3823 H   0  0  0  0  0  0  0  0  0  0  0  0
    8.1699   34.6204   22.0039 H   0  0  0  0  0  0  0  0  0  0  0  0
    9.5548   34.1536   23.6382 H   0  0  0  0  0  0  0  0  0  0  0  0
    8.6487   32.6226   24.0584 H   0  0  0  0  0  0  0  0  0  0  0  0
   11.2011   32.9153   22.7761 H   0  0  0  0  0  0  0  0  0  0  0  0
   10.2891   31.4165   23.2486 H   0  0  0  0  0  0  0  0  0  0  0  0
    9.1949   31.3031   21.1427 H   0  0  0  0  0  0  0  0  0  0  0  0
    9.8039   32.9561   20.6842 H   0  0  0  0  0  0  0  0  0  0  0  0
  1  2  1  0
  2  3  1  0
  3  4  1  0
  4  5  1  0
  5  6  1  0
  6  7  1  0
  7  8  1  0
  8  9  1  0
  9 10  1  0
 10 11  1  0
 11 12  1  0
 12 13  1  0
 13 14  1  0
 14 15  1  0
 15 16  1  0
 16 17  1  0
 17 18  1  0
 18 19  2  0
 18 20  1  0
  1 21  1  0
  1 22  1  0
  1 23  1  0
  2 24  1  0
  2 25  1  0
  3 26  1  0
  3 27  1  0
  4 28  1  0
  4 29  1  0
  5 30  1  0
  5 31  1  0
  6 32  1  0
  6 33  1  0
  7 34  1  0
  7 35  1  0
  8 36  1  0
  8 37  1  0
  9 38  1  0
  9 39  1  0
 10 40  1  0
 10 41  1  0
 11 42  1  0
 11 43  1  0
 12 44  1  0
 12 45  1  0
 13 46  1  0
 13 47  1  0
 14 48  1  0
 14 49  1  0
 15 50  1  0
 15 51  1  0
 16 52  1  0
 16 53  1  0
 17 54  1  0
 17 55  1  0
M  CHG  1  20  -1
M  END
>  <meeko>  (1) 
{"is_sidechain": [false], "free_energy": -6.254, "intermolecular_energy": -12.104, "internal_energy": -2.514}

$$$$
stearate_Clobe_run03
     RDKit          3D

 55 54  0  0  0  0  0  0  0  0999 V2000
    7.4180   33.4990   22.4590 C   0  0  0  0  0  0  0  0  0  0  0  0
    5.9790   33.0170   22.5610 C   0  0  0  0  0  0  0  0  0  0  0  0
    5.5190   32.2040   21.3480 C   0  0  0  0  0  0  0  0  0  0  0  0
    6.5920   32.0740   20.2640 C   0  0  0  0  0  0  0  0  0  0  0  0
    5.9620   31.9390   18.8750 C   0  0  0  0  0  0  0  0  0  0  0  0
    5.4360   30.5310   18.5810 C   0  0  0  0  0  0  0  0  0  0  0  0
    6.0700   29.8220   17.3790 C   0  0  0  0  0  0  0  0  0  0  0  0
    7.4550   29.2140   17.6210 C   0  0  0  0  0  0  0  0  0  0  0  0
    8.5830   29.9810   16.9340 C   0  0  0  0  0  0  0  0  0  0  0  0
    8.1100   31.0890   15.9860 C   0  0  0  0  0  0  0  0  0  0  0  0
    8.6450   32.4910   16.3070 C   0  0  0  0  0  0  0  0  0  0  0  0
   10.1580   32.5070   16.5420 C   0  0  0  0  0  0  0  0  0  0  0  0
   10.5510   32.9300   17.9620 C   0  0  0  0  0  0  0  0  0  0  0  0
   10.9860   31.8020   18.9020 C   0  0  0  0  0  0  0  0  0  0  0  0
   10.3120   31.7810   20.2780 C   0  0  0  0  0  0  0  0  0  0  0  0
   11.2600   31.4070   21.4210 C   0  0  0  0  0  0  0  0  0  0  0  0
   10.9970   32.2290   22.6810 C   0  0  0  0  0  0  0  0  0  0  0  0
   12.1670   32.2290   23.6270 C   0  0  0  0  0  0  0  0  0  0  0  0
   12.1300   32.5030   24.8150 O   0  0  0  0  0  0  0  0  0  0  0  0
   13.3210   31.8630   23.0420 O   0  0  0  0  0  0  0  0  0  0  0  0
    7.8308   33.6373   23.4692 H   0  0  0  0  0  0  0  0  0  0  0  0
    8.0172   32.7525   21.9170 H   0  0  0  0  0  0  0  0  0  0  0  0
    7.4467   34.4558   21.9170 H   0  0  0  0  0  0  0  0  0  0  0  0
    5.8857   32.3870   23.4579 H   0  0  0  0  0  0  0  0  0  0  0  0
    5.3412   33.9118   22.6111 H   0  0  0  0  0  0  0  0  0  0  0  0
    5.2425   31.1952   21.6883 H   0  0  0  0  0  0  0  0  0  0  0  0
    4.6677   32.7386   20.9013 H   0  0  0  0  0  0  0  0  0  0  0  0
    7.2312   32.9690   20.2827 H   0  0  0  0  0  0  0  0  0  0  0  0
    7.1847   31.1699   20.4671 H   0  0  0  0  0  0  0  0  0  0  0  0
    5.1233   32.6470   18.8020 H   0  0  0  0  0  0  0  0  0  0  0  0
    6.7506   32.1519   18.1382 H   0  0  0  0  0  0  0  0  0  0  0  0
    5.6143   29.9108   19.4718 H   0  0  0  0  0  0  0  0  0  0  0  0
    4.3724   30.6549   18.3292 H   0  0  0  0  0  0  0  0  0  0  0  0
    5.3942   29.0110   17.0700 H   0  0  0  0  0  0  0  0  0  0  0  0
    6.2133   30.5992   16.6139 H   0  0  0  0  0  0  0  0  0  0  0  0
    7.6479   29.2061   18.7039 H   0  0  0  0  0  0  0  0  0  0  0  0
    7.4439   28.2007   17.1931 H   0  0  0  0  0  0  0  0  0  0  0  0
    9.2112   30.4390   17.7122 H   0  0  0  0  0  0  0  0  0  0  0  0
    9.1281   29.2515   16.3169 H   0  0  0  0  0  0  0  0  0  0  0  0
    8.4313   30.8264   14.9673 H   0  0  0  0  0  0  0  0  0  0  0  0
    7.0173   31.1441   16.0994 H   0  0  0  0  0  0  0  0  0  0  0  0
    8.4129   33.1578   15.4635 H   0  0  0  0  0  0  0  0  0  0  0  0
    8.1610   32.8265   17.2361 H   0  0  0  0  0  0  0  0  0  0  0  0
   10.5497   31.4955   16.3589 H   0  0  0  0  0  0  0  0  0  0  0  0
   10.5850   33.2504   15.8527 H   0  0  0  0  0  0  0  0  0  0  0  0
   11.3854   33.6423   17.8822 H   0  0  0  0  0  0  0  0  0  0  0  0
    9.6392   33.3533   18.4085 H   0  0  0  0  0  0  0  0  0  0  0  0
   10.7672   30.8455   18.4048 H   0  0  0  0  0  0  0  0  0  0  0  0
   12.0552   31.9719   19.0965 H   0  0  0  0  0  0  0  0  0  0  0  0
    9.9024   32.7818   20.4796 H   0  0  0  0  0  0  0  0  0  0  0  0
    9.5305   31.0078   20.2419 H   0  0  0  0  0  0  0  0  0  0  0  0
   11.1253   30.3415   21.6586 H   0  0  0  0  0  0  0  0  0  0  0  0
   12.2878   31.6165   21.0896 H   0  0  0  0  0  0  0  0  0  0  0  0
   10.7825   33.2668   22.3861 H   0  0  0  0  0  0  0  0  0  0  0  0
   10.1450   31.7716   23.2052 H   0  0  0  0  0  0  0  0  0  0  0  0
  1  2  1  0
  2  3  1  0
  3  4  1  0
  4  5  1  0
  5  6  1  0
  6  7  1  0
  7  8  1  0
  8  9  1  0
  9 10  1  0
 10 11  1  0
 11 12  1  0
 12 13  1  0
 13 14  1  0
 14 15  1  0
 15 16  1  0
 16 17  1  0
 17 18  1  0
 18 19  2  0
 18 20  1  0
  1 21  1  0
  1 22  1  0
  1 23  1  0
  2 24  1  0
  2 25  1  0
  3 26  1  0
  3 27  1  0
  4 28  1  0
  4 29  1  0
  5 30  1  0
  5 31  1  0
  6 32  1  0
  6 33  1  0
  7 34  1  0
  7 35  1  0
  8 36  1  0
  8 37  1  0
  9 38  1  0
  9 39  1  0
 10 40  1  0
 10 41  1  0
 11 42  1  0
 11 43  1  0
 12 44  1  0
 12 45  1  0
 13 46  1  0
 13 47  1  0
 14 48  1  0
 14 49  1  0
 15 50  1  0
 15 51  1  0
 16 52  1  0
 16 53  1  0
 17 54  1  0
 17 55  1  0
M  CHG  1  20  -1
M  END
>  <meeko>  (2) 
{"is_sidechain": [false], "free_energy": -6.083, "intermolecular_energy": -12.421, "internal_energy": -1.866}

$$$$
stearate_Clobe_run03
     RDKit          3D

 55 54  0  0  0  0  0  0  0  0999 V2000
    9.2520   32.9730   15.9600 C   0  0  0  0  0  0  0  0  0  0  0  0
    8.6390   33.3260   17.3070 C   0  0  0  0  0  0  0  0  0  0  0  0
    9.3100   32.6210   18.4880 C   0  0  0  0  0  0  0  0  0  0  0  0
    9.7610   31.1940   18.1660 C   0  0  0  0  0  0  0  0  0  0  0  0
    8.6080   30.2010   18.3250 C   0  0  0  0  0  0  0  0  0  0  0  0
    8.1660   29.5640   17.0030 C   0  0  0  0  0  0  0  0  0  0  0  0
    6.6660   29.6380   16.6980 C   0  0  0  0  0  0  0  0  0  0  0  0
    5.7730   30.0940   17.8550 C   0  0  0  0  0  0  0  0  0  0  0  0
    5.4530   31.5870   17.8250 C   0  0  0  0  0  0  0  0  0  0  0  0
    5.1090   32.1880   19.1940 C   0  0  0  0  0  0  0  0  0  0  0  0
    6.0450   31.7770   20.3380 C   0  0  0  0  0  0  0  0  0  0  0  0
    5.5020   32.1690   21.7160 C   0  0  0  0  0  0  0  0  0  0  0  0
    6.3930   33.1680   22.4610 C   0  0  0  0  0  0  0  0  0  0  0  0
    7.8480   33.2530   21.9890 C   0  0  0  0  0  0  0  0  0  0  0  0
    8.8730   33.6600   23.0530 C   0  0  0  0  0  0  0  0  0  0  0  0
    9.9070   32.5720   23.3570 C   0  0  0  0  0  0  0  0  0  0  0  0
   10.3660   31.8420   22.0970 C   0  0  0  0  0  0  0  0  0  0  0  0
   11.8360   31.5260   22.1120 C   0  0  0  0  0  0  0  0  0  0  0  0
   12.6450   31.9100   22.9390 O   0  0  0  0  0  0  0  0  0  0  0  0
   12.2160   30.7220   21.1030 O   0  0  0  0  0  0  0  0  0  0  0  0
   10.1954   32.4297   16.1176 H   0  0  0  0  0  0  0  0  0  0  0  0
    8.5537   32.3387   15.3943 H   0  0  0  0  0  0  0  0  0  0  0  0
    9.4501   33.8953   15.3943 H   0  0  0  0  0  0  0  0  0  0  0  0
    8.7264   34.4125   17.4550 H   0  0  0  0  0  0  0  0  0  0  0  0
    7.5917   32.9905   17.2832 H   0  0  0  0  0  0  0  0  0  0  0  0
   10.1916   33.2061   18.7885 H   0  0  0  0  0  0  0  0  0  0  0  0
    8.5633   32.5524   19.2928 H   0  0  0  0  0  0  0  0  0  0  0  0
   10.1251   31.1581   17.1286 H   0  0  0  0  0  0  0  0  0  0  0  0
   10.5610   30.9146   18.8674 H   0  0  0  0  0  0  0  0  0  0  0  0
    8.9291   29.4004   19.0075 H   0  0  0  0  0  0  0  0  0  0  0  0
    7.7478   30.7627   18.7181 H   0  0  0  0  0  0  0  0  0  0  0  0
    8.7021   30.0716   16.1875 H   0  0  0  0  0  0  0  0  0  0  0  0
    8.4010   28.4932   17.0930 H   0  0  0  0  0  0  0  0  0  0  0  0
    6.5252   30.3425   15.8650 H   0  0  0  0  0  0  0  0  0  0  0  0
    6.3562   28.6076   16.4694 H   0  0  0  0  0  0  0  0  0  0  0  0
    4.8274   29.5341   17.8067 H   0  0  0  0  0  0  0  0  0  0  0  0
    6.3253   29.8999   18.7863 H   0  0  0  0  0  0  0  0  0  0  0  0
    6.3292   32.1189   17.4259 H   0  0  0  0  0  0  0  0  0  0  0  0
    4.5580   31.7041   17.1964 H   0  0  0  0  0  0  0  0  0  0  0  0
    5.1421   33.2838   19.1033 H   0  0  0  0  0  0  0  0  0  0  0  0
    4.1138   31.8006   19.4577 H   0  0  0  0  0  0  0  0  0  0  0  0
    6.1774   30.6854   20.3094 H   0  0  0  0  0  0  0  0  0  0  0  0
    6.9984   32.3063   20.1937 H   0  0  0  0  0  0  0  0  0  0  0  0
    4.5078   32.6205   21.5831 H   0  0  0  0  0  0  0  0  0  0  0  0
    5.4654   31.2522   22.3227 H   0  0  0  0  0  0  0  0  0  0  0  0
    5.9446   34.1663   22.3504 H   0  0  0  0  0  0  0  0  0  0  0  0
    6.4389   32.8073   23.4992 H   0  0  0  0  0  0  0  0  0  0  0  0
    8.1361   32.2636   21.6043 H   0  0  0  0  0  0  0  0  0  0  0  0
    7.8700   34.0516   21.2329 H   0  0  0  0  0  0  0  0  0  0  0  0
    9.4046   34.5556   22.6990 H   0  0  0  0  0  0  0  0  0  0  0  0
    8.3159   33.8442   23.9834 H   0  0  0  0  0  0  0  0  0  0  0  0
   10.7815   33.0383   23.8343 H   0  0  0  0  0  0  0  0  0  0  0  0
    9.4338   31.8335   24.0208 H   0  0  0  0  0  0  0  0  0  0  0  0
    9.8045   30.9000   22.0119 H   0  0  0  0  0  0  0  0  0  0  0  0
   10.1779   32.5067   21.2410 H   0  0  0  0  0  0  0  0  0  0  0  0
  1  2  1  0
  2  3  1  0
  3  4  1  0
  4  5  1  0
  5  6  1  0
  6  7  1  0
  7  8  1  0
  8  9  1  0
  9 10  1  0
 10 11  1  0
 11 12  1  0
 12 13  1  0
 13 14  1  0
 14 15  1  0
 15 16  1  0
 16 17  1  0
 17 18  1  0
 18 19  2  0
 18 20  1  0
  1 21  1  0
  1 22  1  0
  1 23  1  0
  2 24  1  0
  2 25  1  0
  3 26  1  0
  3 27  1  0
  4 28  1  0
  4 29  1  0
  5 30  1  0
  5 31  1  0
  6 32  1  0
  6 33  1  0
  7 34  1  0
  7 35  1  0
  8 36  1  0
  8 37  1  0
  9 38  1  0
  9 39  1  0
 10 40  1  0
 10 41  1  0
 11 42  1  0
 11 43  1  0
 12 44  1  0
 12 45  1  0
 13 46  1  0
 13 47  1  0
 14 48  1  0
 14 49  1  0
 15 50  1  0
 15 51  1  0
 16 52  1  0
 16 53  1  0
 17 54  1  0
 17 55  1  0
M  CHG  1  20  -1
M  END
>  <meeko>  (3) 
{"is_sidechain": [false], "free_energy": -5.858, "intermolecular_energy": -11.571, "internal_energy": -2.279}

$$$$
stearate_Clobe_run03
     RDKit          3D

 55 54  0  0  0  0  0  0  0  0999 V2000
    4.5640   34.4200   16.0510 C   0  0  0  0  0  0  0  0  0  0  0  0
    4.0890   33.2640   16.9190 C   0  0  0  0  0  0  0  0  0  0  0  0
    5.1720   32.7140   17.8500 C   0  0  0  0  0  0  0  0  0  0  0  0
    4.9990   31.2270   18.1680 C   0  0  0  0  0  0  0  0  0  0  0  0
    5.0620   30.9730   19.6760 C   0  0  0  0  0  0  0  0  0  0  0  0
    5.9770   31.9510   20.4200 C   0  0  0  0  0  0  0  0  0  0  0  0
    5.5420   32.3180   21.8430 C   0  0  0  0  0  0  0  0  0  0  0  0
    6.4260   33.3380   22.5670 C   0  0  0  0  0  0  0  0  0  0  0  0
    7.8450   33.4190   22.0080 C   0  0  0  0  0  0  0  0  0  0  0  0
    8.9490   33.3260   23.0680 C   0  0  0  0  0  0  0  0  0  0  0  0
   10.0610   32.3140   22.7620 C   0  0  0  0  0  0  0  0  0  0  0  0
   10.0050   31.7910   21.3230 C   0  0  0  0  0  0  0  0  0  0  0  0
   11.3830   31.4570   20.7410 C   0  0  0  0  0  0  0  0  0  0  0  0
   11.4990   31.5170   19.2140 C   0  0  0  0  0  0  0  0  0  0  0  0
   10.6880   32.6190   18.5250 C   0  0  0  0  0  0  0  0  0  0  0  0
   10.2490   32.2600   17.1030 C   0  0  0  0  0  0  0  0  0  0  0  0
    8.7580   31.9390   17.0230 C   0  0  0  0  0  0  0  0  0  0  0  0
    8.4600   30.4930   17.3080 C   0  0  0  0  0  0  0  0  0  0  0  0
    8.3730   29.9810   18.4110 O   0  0  0  0  0  0  0  0  0  0  0  0
    8.2600   29.7640   16.1950 O   0  0  0  0  0  0  0  0  0  0  0  0
    4.9033   35.2458   16.6936 H   0  0  0  0  0  0  0  0  0  0  0  0
    5.3968   34.0836   15.4159 H   0  0  0  0  0  0  0  0  0  0  0  0
    3.7353   34.7663   15.4159 H   0  0  0  0  0  0  0  0  0  0  0  0
    3.2463   33.6135   17.5336 H   0  0  0  0  0  0  0  0  0  0  0  0
    3.8005   32.4475   16.2407 H   0  0  0  0  0  0  0  0  0  0  0  0
    6.1511   32.8566   17.3693 H   0  0  0  0  0  0  0  0  0  0  0  0
    5.0933   33.2617   18.8007 H   0  0  0  0  0  0  0  0  0  0  0  0
    4.0235   30.8898   17.7877 H   0  0  0  0  0  0  0  0  0  0  0  0
    5.8163   30.6702   17.6863 H   0  0  0  0  0  0  0  0  0  0  0  0
    4.0460   31.0641   20.0877 H   0  0  0  0  0  0  0  0  0  0  0  0
    5.4795   29.9653   19.8184 H   0  0  0  0  0  0  0  0  0  0  0  0
    6.9780   31.4988   20.4788 H   0  0  0  0  0  0  0  0  0  0  0  0
    5.9435   32.8885   19.8455 H   0  0  0  0  0  0  0  0  0  0  0  0
    4.5241   32.7315   21.7889 H   0  0  0  0  0  0  0  0  0  0  0  0
    5.6165   31.3892   22.4276 H   0  0  0  0  0  0  0  0  0  0  0  0
    5.9590   34.3298   22.4767 H   0  0  0  0  0  0  0  0  0  0  0  0
    6.5086   33.0098   23.6136 H   0  0  0  0  0  0  0  0  0  0  0  0
    7.9818   32.5924   21.2952 H   0  0  0  0  0  0  0  0  0  0  0  0
    7.9420   34.4094   21.5394 H   0  0  0  0  0  0  0  0  0  0  0  0
    9.4104   34.3196   23.1677 H   0  0  0  0  0  0  0  0  0  0  0  0
    8.4606   32.9756   23.9893 H   0  0  0  0  0  0  0  0  0  0  0  0
   11.0341   32.8014   22.9216 H   0  0  0  0  0  0  0  0  0  0  0  0
    9.9217   31.4541   23.4337 H   0  0  0  0  0  0  0  0  0  0  0  0
    9.3899   30.8792   21.3074 H   0  0  0  0  0  0  0  0  0  0  0  0
    9.5772   32.5928   20.7032 H   0  0  0  0  0  0  0  0  0  0  0  0
   12.1079   32.1692   21.1620 H   0  0  0  0  0  0  0  0  0  0  0  0
   11.5736   30.4081   21.0123 H   0  0  0  0  0  0  0  0  0  0  0  0
   12.5587   31.6706   18.9621 H   0  0  0  0  0  0  0  0  0  0  0  0
   11.0839   30.5671   18.8460 H   0  0  0  0  0  0  0  0  0  0  0  0
    9.7888   32.8168   19.1269 H   0  0  0  0  0  0  0  0  0  0  0  0
   11.3422   33.4999   18.4475 H   0  0  0  0  0  0  0  0  0  0  0  0
   10.4641   33.1113   16.4404 H   0  0  0  0  0  0  0  0  0  0  0  0
   10.8046   31.3621   16.7947 H   0  0  0  0  0  0  0  0  0  0  0  0
    8.2244   32.5598   17.7578 H   0  0  0  0  0  0  0  0  0  0  0  0
    8.4271   32.1503   15.9954 H   0  0  0  0  0  0  0  0  0  0  0  0
  1  2  1  0
  2  3  1  0
  3  4  1  0
  4  5  1  0
  5  6  1  0
  6  7  1  0
  7  8  1  0
  8  9  1  0
  9 10  1  0
 10 11  1  0
 11 12  1  0
 12 13  1  0
 13 14  1  0
 14 15  1  0
 15 16  1  0
 16 17  1  0
 17 18  1  0
 18 19  2  0
 18 20  1  0
  1 21  1  0
  1 22  1  0
  1 23  1  0
  2 24  1  0
  2 25  1  0
  3 26  1  0
  3 27  1  0
  4 28  1  0
  4 29  1  0
  5 30  1  0
  5 31  1  0
  6 32  1  0
  6 33  1  0
  7 34  1  0
  7 35  1  0
  8 36  1  0
  8 37  1  0
  9 38  1  0
  9 39  1  0
 10 40  1  0
 10 41  1  0
 11 42  1  0
 11 43  1  0
 12 44  1  0
 12 45  1  0
 13 46  1  0
 13 47  1  0
 14 48  1  0
 14 49  1  0
 15 50  1  0
 15 51  1  0
 16 52  1  0
 16 53  1  0
 17 54  1  0
 17 55  1  0
M  CHG  1  20  -1
M  END
>  <meeko>  (4) 
{"is_sidechain": [false], "free_energy": -5.707, "intermolecular_energy": -11.823, "internal_energy": -1.735}

$$$$
stearate_Clobe_run03
     RDKit          3D

 55 54  0  0  0  0  0  0  0  0999 V2000
   10.5410   35.1900   26.7030 C   0  0  0  0  0  0  0  0  0  0  0  0
   11.9420   34.6090   26.5810 C   0  0  0  0  0  0  0  0  0  0  0  0
   11.9630   33.1680   26.0660 C   0  0  0  0  0  0  0  0  0  0  0  0
   10.7160   32.7940   25.2600 C   0  0  0  0  0  0  0  0  0  0  0  0
   11.0930   32.2190   23.8920 C   0  0  0  0  0  0  0  0  0  0  0  0
   10.0330   32.4690   22.8140 C   0  0  0  0  0  0  0  0  0  0  0  0
    8.9370   33.4760   23.1800 C   0  0  0  0  0  0  0  0  0  0  0  0
    7.8060   33.6290   22.1590 C   0  0  0  0  0  0  0  0  0  0  0  0
    6.4150   33.4340   22.7590 C   0  0  0  0  0  0  0  0  0  0  0  0
    5.4850   32.5420   21.9270 C   0  0  0  0  0  0  0  0  0  0  0  0
    6.1330   31.9020   20.6920 C   0  0  0  0  0  0  0  0  0  0  0  0
    5.2500   31.9980   19.4440 C   0  0  0  0  0  0  0  0  0  0  0  0
    5.2420   30.7170   18.6020 C   0  0  0  0  0  0  0  0  0  0  0  0
    6.6020   30.0460   18.3870 C   0  0  0  0  0  0  0  0  0  0  0  0
    7.0410   29.8770   16.9290 C   0  0  0  0  0  0  0  0  0  0  0  0
    8.3220   30.6390   16.5800 C   0  0  0  0  0  0  0  0  0  0  0  0
    8.5910   31.7900   17.5470 C   0  0  0  0  0  0  0  0  0  0  0  0
    9.8230   31.5710   18.3810 C   0  0  0  0  0  0  0  0  0  0  0  0
    9.8910   30.9080   19.4020 O   0  0  0  0  0  0  0  0  0  0  0  0
   10.9150   32.1760   17.8810 O   0  0  0  0  0  0  0  0  0  0  0  0
   10.2802   35.2982   27.7662 H   0  0  0  0  0  0  0  0  0  0  0  0
   10.5090   36.1756   26.2155 H   0  0  0  0  0  0  0  0  0  0  0  0
    9.8209   34.5163   26.2155 H   0  0  0  0  0  0  0  0  0  0  0  0
   12.5194   35.2357   25.8854 H   0  0  0  0  0  0  0  0  0  0  0  0
   12.3765   34.5976   27.5915 H   0  0  0  0  0  0  0  0  0  0  0  0
   12.8459   33.0402   25.4224 H   0  0  0  0  0  0  0  0  0  0  0  0
   11.9920   32.5083   26.9457 H   0  0  0  0  0  0  0  0  0  0  0  0
   10.1397   32.0420   25.8189 H   0  0  0  0  0  0  0  0  0  0  0  0
   10.1172   33.7032   25.1027 H   0  0  0  0  0  0  0  0  0  0  0  0
   12.0366   32.6818   23.5672 H   0  0  0  0  0  0  0  0  0  0  0  0
   11.1841   31.1293   24.0115 H   0  0  0  0  0  0  0  0  0  0  0  0
   10.5465   32.8404   21.9149 H   0  0  0  0  0  0  0  0  0  0  0  0
    9.5198   31.5068   22.6695 H   0  0  0  0  0  0  0  0  0  0  0  0
    8.4904   33.1574   24.1334 H   0  0  0  0  0  0  0  0  0  0  0  0
    9.4342   34.4562   23.2249 H   0  0  0  0  0  0  0  0  0  0  0  0
    7.8607   34.6392   21.7272 H   0  0  0  0  0  0  0  0  0  0  0  0
    7.9451   32.8440   21.4011 H   0  0  0  0  0  0  0  0  0  0  0  0
    6.5302   32.9779   23.7534 H   0  0  0  0  0  0  0  0  0  0  0  0
    5.9465   34.4286   22.7948 H   0  0  0  0  0  0  0  0  0  0  0  0
    5.1166   31.7340   22.5762 H   0  0  0  0  0  0  0  0  0  0  0  0
    4.6867   33.1981   21.5498 H   0  0  0  0  0  0  0  0  0  0  0  0
    7.0854   32.4137   20.4894 H   0  0  0  0  0  0  0  0  0  0  0  0
    6.2831   30.8346   20.9113 H   0  0  0  0  0  0  0  0  0  0  0  0
    4.2191   32.2122   19.7623 H   0  0  0  0  0  0  0  0  0  0  0  0
    5.6659   32.7976   18.8135 H   0  0  0  0  0  0  0  0  0  0  0  0
    4.5835   29.9906   19.1007 H   0  0  0  0  0  0  0  0  0  0  0  0
    4.9004   31.0218   17.6018 H   0  0  0  0  0  0  0  0  0  0  0  0
    7.3624   30.6533   18.8998 H   0  0  0  0  0  0  0  0  0  0  0  0
    6.4978   29.0266   18.7869 H   0  0  0  0  0  0  0  0  0  0  0  0
    7.2108   28.8069   16.7392 H   0  0  0  0  0  0  0  0  0  0  0  0
    6.2387   30.2923   16.3014 H   0  0  0  0  0  0  0  0  0  0  0  0
    9.1708   29.9402   16.6164 H   0  0  0  0  0  0  0  0  0  0  0  0
    8.1972   31.0658   15.5739 H   0  0  0  0  0  0  0  0  0  0  0  0
    8.7192   32.7152   16.9660 H   0  0  0  0  0  0  0  0  0  0  0  0
    7.7331   31.8558   18.2323 H   0  0  0  0  0  0  0  0  0  0  0  0
  1  2  1  0
  2  3  1  0
  3  4  1  0
  4  5  1  0
  5  6  1  0
  6  7  1  0
  7  8  1  0
  8  9  1  0
  9 10  1  0
 10 11  1  0
 11 12  1  0
 12 13  1  0
 13 14  1  0
 14 15  1  0
 15 16  1  0
 16 17  1  0
 17 18  1  0
 18 19  2  0
 18 20  1  0
  1 21  1  0
  1 22  1  0
  1 23  1  0
  2 24  1  0
  2 25  1  0
  3 26  1  0
  3 27  1  0
  4 28  1  0
  4 29  1  0
  5 30  1  0
  5 31  1  0
  6 32  1  0
  6 33  1  0
  7 34  1  0
  7 35  1  0
  8 36  1  0
  8 37  1  0
  9 38  1  0
  9 39  1  0
 10 40  1  0
 10 41  1  0
 11 42  1  0
 11 43  1  0
 12 44  1  0
 12 45  1  0
 13 46  1  0
 13 47  1  0
 14 48  1  0
 14 49  1  0
 15 50  1  0
 15 51  1  0
 16 52  1  0
 16 53  1  0
 17 54  1  0
 17 55  1  0
M  CHG  1  20  -1
M  END
>  <meeko>  (5) 
{"is_sidechain": [false], "free_energy": -5.595, "intermolecular_energy": -12.106, "internal_energy": -1.236}

$$$$
stearate_Clobe_run03
     RDKit          3D

 55 54  0  0  0  0  0  0  0  0999 V2000
    4.9170   34.2280   16.4470 C   0  0  0  0  0  0  0  0  0  0  0  0
    4.3170   32.9770   17.0720 C   0  0  0  0  0  0  0  0  0  0  0  0
    5.2780   32.2440   18.0120 C   0  0  0  0  0  0  0  0  0  0  0  0
    5.0510   30.7300   18.0490 C   0  0  0  0  0  0  0  0  0  0  0  0
    5.8980   30.0180   16.9910 C   0  0  0  0  0  0  0  0  0  0  0  0
    7.3660   29.8500   17.4000 C   0  0  0  0  0  0  0  0  0  0  0  0
    8.4000   30.3140   16.3690 C   0  0  0  0  0  0  0  0  0  0  0  0
    8.5770   31.8300   16.2400 C   0  0  0  0  0  0  0  0  0  0  0  0
    8.7650   32.5370   17.5810 C   0  0  0  0  0  0  0  0  0  0  0  0
   10.0900   32.2180   18.2840 C   0  0  0  0  0  0  0  0  0  0  0  0
    9.9530   31.6440   19.7000 C   0  0  0  0  0  0  0  0  0  0  0  0
    8.4930   31.4840   20.1350 C   0  0  0  0  0  0  0  0  0  0  0  0
    8.0730   32.4640   21.2350 C   0  0  0  0  0  0  0  0  0  0  0  0
    9.2110   33.1920   21.9570 C   0  0  0  0  0  0  0  0  0  0  0  0
    8.9600   33.5340   23.4290 C   0  0  0  0  0  0  0  0  0  0  0  0
    9.9260   32.8400   24.3940 C   0  0  0  0  0  0  0  0  0  0  0  0
   10.9070   31.9230   23.6680 C   0  0  0  0  0  0  0  0  0  0  0  0
   12.3430   32.2600   23.9630 C   0  0  0  0  0  0  0  0  0  0  0  0
   13.3080   31.9500   23.2860 O   0  0  0  0  0  0  0  0  0  0  0  0
   12.4960   32.9920   25.0820 O   0  0  0  0  0  0  0  0  0  0  0  0
    5.2458   34.9135   17.2420 H   0  0  0  0  0  0  0  0  0  0  0  0
    5.7793   33.9490   15.8236 H   0  0  0  0  0  0  0  0  0  0  0  0
    4.1597   34.7258   15.8236 H   0  0  0  0  0  0  0  0  0  0  0  0
    3.4238   33.2676   17.6444 H   0  0  0  0  0  0  0  0  0  0  0  0
    4.0785   32.2865   16.2497 H   0  0  0  0  0  0  0  0  0  0  0  0
    6.3081   32.4346   17.6765 H   0  0  0  0  0  0  0  0  0  0  0  0
    5.0958   32.6260   19.0273 H   0  0  0  0  0  0  0  0  0  0  0  0
    5.3258   30.3501   19.0441 H   0  0  0  0  0  0  0  0  0  0  0  0
    3.9899   30.5313   17.8378 H   0  0  0  0  0  0  0  0  0  0  0  0
    5.4689   29.0208   16.8137 H   0  0  0  0  0  0  0  0  0  0  0  0
    5.8819   30.6437   16.0864 H   0  0  0  0  0  0  0  0  0  0  0  0
    7.5276   30.4255   18.3234 H   0  0  0  0  0  0  0  0  0  0  0  0
    7.5230   28.7675   17.5160 H   0  0  0  0  0  0  0  0  0  0  0  0
    9.3726   29.8830   16.6486 H   0  0  0  0  0  0  0  0  0  0  0  0
    8.0239   29.9725   15.3933 H   0  0  0  0  0  0  0  0  0  0  0  0
    9.4616   32.0256   15.6161 H   0  0  0  0  0  0  0  0  0  0  0  0
    7.6544   32.2268   15.7912 H   0  0  0  0  0  0  0  0  0  0  0  0
    8.7201   33.6223   17.4072 H   0  0  0  0  0  0  0  0  0  0  0  0
    7.9635   32.1755   18.2420 H   0  0  0  0  0  0  0  0  0  0  0  0
   10.6337   31.4848   17.6701 H   0  0  0  0  0  0  0  0  0  0  0  0
   10.6185   33.1767   18.3916 H   0  0  0  0  0  0  0  0  0  0  0  0
   10.4386   30.6574   19.7282 H   0  0  0  0  0  0  0  0  0  0  0  0
   10.4301   32.3525   20.3930 H   0  0  0  0  0  0  0  0  0  0  0  0
    7.8486   31.6471   19.2586 H   0  0  0  0  0  0  0  0  0  0  0  0
    8.3872   30.4697   20.5472 H   0  0  0  0  0  0  0  0  0  0  0  0
    7.4236   33.2249   20.7776 H   0  0  0  0  0  0  0  0  0  0  0  0
    7.5780   31.8523   22.0036 H   0  0  0  0  0  0  0  0  0  0  0  0
   10.1048   32.5528   21.9073 H   0  0  0  0  0  0  0  0  0  0  0  0
    9.3202   34.1578   21.4418 H   0  0  0  0  0  0  0  0  0  0  0  0
    9.0638   34.6217   23.5557 H   0  0  0  0  0  0  0  0  0  0  0  0
    7.9484   33.1784   23.6744 H   0  0  0  0  0  0  0  0  0  0  0  0
   10.4954   33.6078   24.9384 H   0  0  0  0  0  0  0  0  0  0  0  0
    9.3303   32.2209   25.0810 H   0  0  0  0  0  0  0  0  0  0  0  0
   10.7173   30.8858   23.9815 H   0  0  0  0  0  0  0  0  0  0  0  0
   10.7494   32.0564   22.5876 H   0  0  0  0  0  0  0  0  0  0  0  0
  1  2  1  0
  2  3  1  0
  3  4  1  0
  4  5  1  0
  5  6  1  0
  6  7  1  0
  7  8  1  0
  8  9  1  0
  9 10  1  0
 10 11  1  0
 11 12  1  0
 12 13  1  0
 13 14  1  0
 14 15  1  0
 15 16  1  0
 16 17  1  0
 17 18  1  0
 18 19  2  0
 18 20  1  0
  1 21  1  0
  1 22  1  0
  1 23  1  0
  2 24  1  0
  2 25  1  0
  3 26  1  0
  3 27  1  0
  4 28  1  0
  4 29  1  0
  5 30  1  0
  5 31  1  0
  6 32  1  0
  6 33  1  0
  7 34  1  0
  7 35  1  0
  8 36  1  0
  8 37  1  0
  9 38  1  0
  9 39  1  0
 10 40  1  0
 10 41  1  0
 11 42  1  0
 11 43  1  0
 12 44  1  0
 12 45  1  0
 13 46  1  0
 13 47  1  0
 14 48  1  0
 14 49  1  0
 15 50  1  0
 15 51  1  0
 16 52  1  0
 16 53  1  0
 17 54  1  0
 17 55  1  0
M  CHG  1  20  -1
M  END
>  <meeko>  (6) 
{"is_sidechain": [false], "free_energy": -5.588, "intermolecular_energy": -11.412, "internal_energy": -1.917}

$$$$
stearate_Clobe_run03
     RDKit          3D

 55 54  0  0  0  0  0  0  0  0999 V2000
    5.4280   32.1470   21.2120 C   0  0  0  0  0  0  0  0  0  0  0  0
    5.1580   31.2040   20.0490 C   0  0  0  0  0  0  0  0  0  0  0  0
    5.2880   31.8720   18.6780 C   0  0  0  0  0  0  0  0  0  0  0  0
    5.6190   30.8880   17.5530 C   0  0  0  0  0  0  0  0  0  0  0  0
    6.2130   29.5920   18.1090 C   0  0  0  0  0  0  0  0  0  0  0  0
    7.5880   29.2530   17.5250 C   0  0  0  0  0  0  0  0  0  0  0  0
    8.3350   30.4170   16.8640 C   0  0  0  0  0  0  0  0  0  0  0  0
    9.4160   31.0850   17.7180 C   0  0  0  0  0  0  0  0  0  0  0  0
    9.0080   32.4560   18.2530 C   0  0  0  0  0  0  0  0  0  0  0  0
    8.6690   32.4760   19.7490 C   0  0  0  0  0  0  0  0  0  0  0  0
    9.5440   31.5720   20.6260 C   0  0  0  0  0  0  0  0  0  0  0  0
    9.9170   32.2240   21.9610 C   0  0  0  0  0  0  0  0  0  0  0  0
   11.3220   31.8540   22.4490 C   0  0  0  0  0  0  0  0  0  0  0  0
   11.6440   32.2140   23.9030 C   0  0  0  0  0  0  0  0  0  0  0  0
   10.4480   32.6090   24.7750 C   0  0  0  0  0  0  0  0  0  0  0  0
   10.8280   33.4580   25.9910 C   0  0  0  0  0  0  0  0  0  0  0  0
   12.2250   33.1270   26.5130 C   0  0  0  0  0  0  0  0  0  0  0  0
   12.2830   33.0640   28.0140 C   0  0  0  0  0  0  0  0  0  0  0  0
   13.2940   32.9810   28.6910 O   0  0  0  0  0  0  0  0  0  0  0  0
   11.0720   33.1320   28.5950 O   0  0  0  0  0  0  0  0  0  0  0  0
    5.2749   31.6121   22.1609 H   0  0  0  0  0  0  0  0  0  0  0  0
    6.4656   32.5081   21.1580 H   0  0  0  0  0  0  0  0  0  0  0  0
    4.7387   33.0026   21.1580 H   0  0  0  0  0  0  0  0  0  0  0  0
    5.8766   30.3728   20.1008 H   0  0  0  0  0  0  0  0  0  0  0  0
    4.1168   30.8622   20.1448 H   0  0  0  0  0  0  0  0  0  0  0  0
    4.3352   32.3673   18.4394 H   0  0  0  0  0  0  0  0  0  0  0  0
    6.1223   32.5861   18.7417 H   0  0  0  0  0  0  0  0  0  0  0  0
    4.6979   30.6523   16.9998 H   0  0  0  0  0  0  0  0  0  0  0  0
    6.3613   31.3548   16.8889 H   0  0  0  0  0  0  0  0  0  0  0  0
    6.3130   29.6941   19.1997 H   0  0  0  0  0  0  0  0  0  0  0  0
    5.5310   28.7758   17.8285 H   0  0  0  0  0  0  0  0  0  0  0  0
    8.2165   28.8684   18.3417 H   0  0  0  0  0  0  0  0  0  0  0  0
    7.4016   28.5228   16.7237 H   0  0  0  0  0  0  0  0  0  0  0  0
    8.8144   30.0352   15.9505 H   0  0  0  0  0  0  0  0  0  0  0  0
    7.5771   31.1928   16.6804 H   0  0  0  0  0  0  0  0  0  0  0  0
    9.6388   30.4297   18.5730 H   0  0  0  0  0  0  0  0  0  0  0  0
   10.2920   31.2377   17.0704 H   0  0  0  0  0  0  0  0  0  0  0  0
    9.8395   33.1548   18.0791 H   0  0  0  0  0  0  0  0  0  0  0  0
    8.0898   32.7415   17.7187 H   0  0  0  0  0  0  0  0  0  0  0  0
    8.7781   33.5095   20.1094 H   0  0  0  0  0  0  0  0  0  0  0  0
    7.6434   32.0879   19.8361 H   0  0  0  0  0  0  0  0  0  0  0  0
    8.9942   30.6414   20.8305 H   0  0  0  0  0  0  0  0  0  0  0  0
   10.4781   31.3809   20.0775 H   0  0  0  0  0  0  0  0  0  0  0  0
    9.8660   33.3163   21.8416 H   0  0  0  0  0  0  0  0  0  0  0  0
    9.2047   31.8536   22.7129 H   0  0  0  0  0  0  0  0  0  0  0  0
   11.4416   30.7663   22.3371 H   0  0  0  0  0  0  0  0  0  0  0  0
   12.0152   32.4483   21.8356 H   0  0  0  0  0  0  0  0  0  0  0  0
   12.1261   31.3412   24.3675 H   0  0  0  0  0  0  0  0  0  0  0  0
   12.2844   33.1070   23.8538 H   0  0  0  0  0  0  0  0  0  0  0  0
    9.7421   33.1834   24.1571 H   0  0  0  0  0  0  0  0  0  0  0  0
   10.0072   31.6769   25.1582 H   0  0  0  0  0  0  0  0  0  0  0  0
   10.7994   34.5197   25.7045 H   0  0  0  0  0  0  0  0  0  0  0  0
   10.1077   33.2398   26.7932 H   0  0  0  0  0  0  0  0  0  0  0  0
   12.5302   32.1510   26.1076 H   0  0  0  0  0  0  0  0  0  0  0  0
   12.9008   33.9316   26.1876 H   0  0  0  0  0  0  0  0  0  0  0  0
  1  2  1  0
  2  3  1  0
  3  4  1  0
  4  5  1  0
  5  6  1  0
  6  7  1  0
  7  8  1  0
  8  9  1  0
  9 10  1  0
 10 11  1  0
 11 12  1  0
 12 13  1  0
 13 14  1  0
 14 15  1  0
 15 16  1  0
 16 17  1  0
 17 18  1  0
 18 19  2  0
 18 20  1  0
  1 21  1  0
  1 22  1  0
  1 23  1  0
  2 24  1  0
  2 25  1  0
  3 26  1  0
  3 27  1  0
  4 28  1  0
  4 29  1  0
  5 30  1  0
  5 31  1  0
  6 32  1  0
  6 33  1  0
  7 34  1  0
  7 35  1  0
  8 36  1  0
  8 37  1  0
  9 38  1  0
  9 39  1  0
 10 40  1  0
 10 41  1  0
 11 42  1  0
 11 43  1  0
 12 44  1  0
 12 45  1  0
 13 46  1  0
 13 47  1  0
 14 48  1  0
 14 49  1  0
 15 50  1  0
 15 51  1  0
 16 52  1  0
 16 53  1  0
 17 54  1  0
 17 55  1  0
M  CHG  1  20  -1
M  END
>  <meeko>  (7) 
{"is_sidechain": [false], "free_energy": -5.534, "intermolecular_energy": -11.545, "internal_energy": -1.679}

$$$$
stearate_Clobe_run03
     RDKit          3D

 55 54  0  0  0  0  0  0  0  0999 V2000
   13.9940   33.3400   29.9280 C   0  0  0  0  0  0  0  0  0  0  0  0
   13.4280   34.6160   30.5310 C   0  0  0  0  0  0  0  0  0  0  0  0
   11.9950   34.4650   31.0490 C   0  0  0  0  0  0  0  0  0  0  0  0
   10.9690   34.2430   29.9340 C   0  0  0  0  0  0  0  0  0  0  0  0
   10.6120   35.5590   29.2400 C   0  0  0  0  0  0  0  0  0  0  0  0
   10.6890   35.4820   27.7120 C   0  0  0  0  0  0  0  0  0  0  0  0
   12.0580   35.1070   27.1340 C   0  0  0  0  0  0  0  0  0  0  0  0
   12.1270   33.7600   26.4080 C   0  0  0  0  0  0  0  0  0  0  0  0
   10.7620   33.1040   26.2110 C   0  0  0  0  0  0  0  0  0  0  0  0
   10.5100   32.5810   24.7910 C   0  0  0  0  0  0  0  0  0  0  0  0
   11.7710   32.1870   24.0110 C   0  0  0  0  0  0  0  0  0  0  0  0
   11.4830   31.8830   22.5370 C   0  0  0  0  0  0  0  0  0  0  0  0
   10.0210   32.1130   22.1410 C   0  0  0  0  0  0  0  0  0  0  0  0
    9.6650   31.8080   20.6820 C   0  0  0  0  0  0  0  0  0  0  0  0
    8.1690   31.7800   20.3510 C   0  0  0  0  0  0  0  0  0  0  0  0
    7.8730   31.7370   18.8490 C   0  0  0  0  0  0  0  0  0  0  0  0
    8.9130   30.9270   18.0790 C   0  0  0  0  0  0  0  0  0  0  0  0
    8.3220   29.7280   17.3910 C   0  0  0  0  0  0  0  0  0  0  0  0
    7.8900   28.7270   17.9360 O   0  0  0  0  0  0  0  0  0  0  0  0
    8.2780   29.8530   16.0520 O   0  0  0  0  0  0  0  0  0  0  0  0
   14.2972   32.6564   30.7347 H   0  0  0  0  0  0  0  0  0  0  0  0
   13.2261   32.8561   29.3066 H   0  0  0  0  0  0  0  0  0  0  0  0
   14.8681   33.5845   29.3066 H   0  0  0  0  0  0  0  0  0  0  0  0
   14.0712   34.9193   31.3702 H   0  0  0  0  0  0  0  0  0  0  0  0
   13.4040   35.3690   29.7295 H   0  0  0  0  0  0  0  0  0  0  0  0
   11.9596   33.6040   31.7327 H   0  0  0  0  0  0  0  0  0  0  0  0
   11.7298   35.4057   31.5537 H   0  0  0  0  0  0  0  0  0  0  0  0
   11.3902   33.5489   29.1919 H   0  0  0  0  0  0  0  0  0  0  0  0
   10.0544   33.8256   30.3805 H   0  0  0  0  0  0  0  0  0  0  0  0
    9.5859   35.8356   29.5238 H   0  0  0  0  0  0  0  0  0  0  0  0
   11.3496   36.3076   29.5648 H   0  0  0  0  0  0  0  0  0  0  0  0
    9.9617   34.7289   27.3744 H   0  0  0  0  0  0  0  0  0  0  0  0
   10.4786   36.4990   27.3494 H   0  0  0  0  0  0  0  0  0  0  0  0
   12.3493   35.8911   26.4196 H   0  0  0  0  0  0  0  0  0  0  0  0
   12.7332   35.0166   27.9977 H   0  0  0  0  0  0  0  0  0  0  0  0
   12.5824   33.9201   25.4196 H   0  0  0  0  0  0  0  0  0  0  0  0
   12.7236   33.0832   27.0373 H   0  0  0  0  0  0  0  0  0  0  0  0
   10.6832   32.2572   26.9087 H   0  0  0  0  0  0  0  0  0  0  0  0
   10.0088   33.8838   26.3969 H   0  0  0  0  0  0  0  0  0  0  0  0
    9.8631   31.6943   24.8639 H   0  0  0  0  0  0  0  0  0  0  0  0
   10.0518   33.4119   24.2345 H   0  0  0  0  0  0  0  0  0  0  0  0
   12.4918   33.0161   24.0651 H   0  0  0  0  0  0  0  0  0  0  0  0
   12.1714   31.2698   24.4676 H   0  0  0  0  0  0  0  0  0  0  0  0
   12.1182   32.5325   21.9168 H   0  0  0  0  0  0  0  0  0  0  0  0
   11.6976   30.8159   22.3783 H   0  0  0  0  0  0  0  0  0  0  0  0
    9.3944   31.4745   22.7810 H   0  0  0  0  0  0  0  0  0  0  0  0
    9.8444   33.1910   22.2706 H   0  0  0  0  0  0  0  0  0  0  0  0
   10.1354   32.5774   20.0522 H   0  0  0  0  0  0  0  0  0  0  0  0
   10.0314   30.7883   20.4926 H   0  0  0  0  0  0  0  0  0  0  0  0
    7.7263   30.8879   20.8182 H   0  0  0  0  0  0  0  0  0  0  0  0
    7.7359   32.7142   20.7380 H   0  0  0  0  0  0  0  0  0  0  0  0
    6.8840   31.2804   18.6958 H   0  0  0  0  0  0  0  0  0  0  0  0
    7.9006   32.7692   18.4698 H   0  0  0  0  0  0  0  0  0  0  0  0
    9.3735   31.5766   17.3201 H   0  0  0  0  0  0  0  0  0  0  0  0
    9.6537   30.5614   18.8055 H   0  0  0  0  0  0  0  0  0  0  0  0
  1  2  1  0
  2  3  1  0
  3  4  1  0
  4  5  1  0
  5  6  1  0
  6  7  1  0
  7  8  1  0
  8  9  1  0
  9 10  1  0
 10 11  1  0
 11 12  1  0
 12 13  1  0
 13 14  1  0
 14 15  1  0
 15 16  1  0
 16 17  1  0
 17 18  1  0
 18 19  2  0
 18 20  1  0
  1 21  1  0
  1 22  1  0
  1 23  1  0
  2 24  1  0
  2 25  1  0
  3 26  1  0
  3 27  1  0
  4 28  1  0
  4 29  1  0
  5 30  1  0
  5 31  1  0
  6 32  1  0
  6 33  1  0
  7 34  1  0
  7 35  1  0
  8 36  1  0
  8 37  1  0
  9 38  1  0
  9 39  1  0
 10 40  1  0
 10 41  1  0
 11 42  1  0
 11 43  1  0
 12 44  1  0
 12 45  1  0
 13 46  1  0
 13 47  1  0
 14 48  1  0
 14 49  1  0
 15 50  1  0
 15 51  1  0
 16 52  1  0
 16 53  1  0
 17 54  1  0
 17 55  1  0
M  CHG  1  20  -1
M  END
>  <meeko>  (8) 
{"is_sidechain": [false], "free_energy": -5.517, "intermolecular_energy": -11.898, "internal_energy": -1.294}

$$$$
stearate_Clobe_run03
     RDKit          3D

 55 54  0  0  0  0  0  0  0  0999 V2000
    5.2800   31.6170   19.8440 C   0  0  0  0  0  0  0  0  0  0  0  0
    5.7310   31.4430   18.4010 C   0  0  0  0  0  0  0  0  0  0  0  0
    5.8720   29.9790   17.9770 C   0  0  0  0  0  0  0  0  0  0  0  0
    7.3260   29.5060   17.9060 C   0  0  0  0  0  0  0  0  0  0  0  0
    8.2350   30.5960   17.3340 C   0  0  0  0  0  0  0  0  0  0  0  0
    9.4210   30.9370   18.2410 C   0  0  0  0  0  0  0  0  0  0  0  0
    9.1960   32.0910   19.2240 C   0  0  0  0  0  0  0  0  0  0  0  0
    9.1280   31.7010   20.7040 C   0  0  0  0  0  0  0  0  0  0  0  0
   10.5010   31.4870   21.3400 C   0  0  0  0  0  0  0  0  0  0  0  0
   10.6440   32.0770   22.7480 C   0  0  0  0  0  0  0  0  0  0  0  0
   12.0810   32.1430   23.2830 C   0  0  0  0  0  0  0  0  0  0  0  0
   12.1460   32.5490   24.7580 C   0  0  0  0  0  0  0  0  0  0  0  0
   10.7990   33.0140   25.3230 C   0  0  0  0  0  0  0  0  0  0  0  0
   10.8530   34.1810   26.3130 C   0  0  0  0  0  0  0  0  0  0  0  0
   12.2490   34.5690   26.8140 C   0  0  0  0  0  0  0  0  0  0  0  0
   12.3330   34.7320   28.3340 C   0  0  0  0  0  0  0  0  0  0  0  0
   13.0780   33.5760   28.9980 C   0  0  0  0  0  0  0  0  0  0  0  0
   13.7610   33.9830   30.2740 C   0  0  0  0  0  0  0  0  0  0  0  0
   14.9040   34.3930   30.3780 O   0  0  0  0  0  0  0  0  0  0  0  0
   12.9680   33.8780   31.3560 O   0  0  0  0  0  0  0  0  0  0  0  0
    6.0888   31.3050   20.5211 H   0  0  0  0  0  0  0  0  0  0  0  0
    5.0359   32.6739   20.0270 H   0  0  0  0  0  0  0  0  0  0  0  0
    4.3893   30.9980   20.0270 H   0  0  0  0  0  0  0  0  0  0  0  0
    4.9919   31.9258   17.7447 H   0  0  0  0  0  0  0  0  0  0  0  0
    6.7273   31.9015   18.3162 H   0  0  0  0  0  0  0  0  0  0  0  0
    5.3360   29.3517   18.7045 H   0  0  0  0  0  0  0  0  0  0  0  0
    5.4513   29.8914   16.9644 H   0  0  0  0  0  0  0  0  0  0  0  0
    7.6691   29.2475   18.9186 H   0  0  0  0  0  0  0  0  0  0  0  0
    7.3751   28.6287   17.2442 H   0  0  0  0  0  0  0  0  0  0  0  0
    8.6250   30.2516   16.3648 H   0  0  0  0  0  0  0  0  0  0  0  0
    7.6274   31.5079   17.2375 H   0  0  0  0  0  0  0  0  0  0  0  0
    9.6686   30.0387   18.8255 H   0  0  0  0  0  0  0  0  0  0  0  0
   10.2265   31.2683   17.5692 H   0  0  0  0  0  0  0  0  0  0  0  0
   10.0230   32.8057   19.1008 H   0  0  0  0  0  0  0  0  0  0  0  0
    8.2071   32.5052   18.9779 H   0  0  0  0  0  0  0  0  0  0  0  0
    8.6111   32.5024   21.2522 H   0  0  0  0  0  0  0  0  0  0  0  0
    8.5906   30.7430   20.7625 H   0  0  0  0  0  0  0  0  0  0  0  0
   10.6880   30.4046   21.3996 H   0  0  0  0  0  0  0  0  0  0  0  0
   11.2280   32.0125   20.7033 H   0  0  0  0  0  0  0  0  0  0  0  0
   10.2390   33.0996   22.7318 H   0  0  0  0  0  0  0  0  0  0  0  0
   10.0972   31.4001   23.4209 H   0  0  0  0  0  0  0  0  0  0  0  0
   12.5440   31.1515   23.1705 H   0  0  0  0  0  0  0  0  0  0  0  0
   12.6155   32.9105   22.7040 H   0  0  0  0  0  0  0  0  0  0  0  0
   12.4888   31.6828   25.3430 H   0  0  0  0  0  0  0  0  0  0  0  0
   12.8387   33.4005   24.8295 H   0  0  0  0  0  0  0  0  0  0  0  0
   10.1665   33.3198   24.4765 H   0  0  0  0  0  0  0  0  0  0  0  0
   10.4058   32.1595   25.8932 H   0  0  0  0  0  0  0  0  0  0  0  0
   10.4147   35.0615   25.8205 H   0  0  0  0  0  0  0  0  0  0  0  0
   10.3005   33.8433   27.2022 H   0  0  0  0  0  0  0  0  0  0  0  0
   12.9579   33.7852   26.5089 H   0  0  0  0  0  0  0  0  0  0  0  0
   12.4895   35.5470   26.3716 H   0  0  0  0  0  0  0  0  0  0  0  0
   12.8604   35.6702   28.5610 H   0  0  0  0  0  0  0  0  0  0  0  0
   11.3066   34.7438   28.7295 H   0  0  0  0  0  0  0  0  0  0  0  0
   12.3572   32.7764   29.2241 H   0  0  0  0  0  0  0  0  0  0  0  0
   13.8559   33.2363   28.2983 H   0  0  0  0  0  0  0  0  0  0  0  0
  1  2  1  0
  2  3  1  0
  3  4  1  0
  4  5  1  0
  5  6  1  0
  6  7  1  0
  7  8  1  0
  8  9  1  0
  9 10  1  0
 10 11  1  0
 11 12  1  0
 12 13  1  0
 13 14  1  0
 14 15  1  0
 15 16  1  0
 16 17  1  0
 17 18  1  0
 18 19  2  0
 18 20  1  0
  1 21  1  0
  1 22  1  0
  1 23  1  0
  2 24  1  0
  2 25  1  0
  3 26  1  0
  3 27  1  0
  4 28  1  0
  4 29  1  0
  5 30  1  0
  5 31  1  0
  6 32  1  0
  6 33  1  0
  7 34  1  0
  7 35  1  0
  8 36  1  0
  8 37  1  0
  9 38  1  0
  9 39  1  0
 10 40  1  0
 10 41  1  0
 11 42  1  0
 11 43  1  0
 12 44  1  0
 12 45  1  0
 13 46  1  0
 13 47  1  0
 14 48  1  0
 14 49  1  0
 15 50  1  0
 15 51  1  0
 16 52  1  0
 16 53  1  0
 17 54  1  0
 17 55  1  0
M  CHG  1  20  -1
M  END
>  <meeko>  (9) 
{"is_sidechain": [false], "free_energy": -5.502, "intermolecular_energy": -12.037, "internal_energy": -1.124}

$$$$
stearate_Clobe_run03
     RDKit          3D

 55 54  0  0  0  0  0  0  0  0999 V2000
    8.0560   29.1550   17.3230 C   0  0  0  0  0  0  0  0  0  0  0  0
    6.8180   29.6720   16.6070 C   0  0  0  0  0  0  0  0  0  0  0  0
    5.5970   29.8130   17.5200 C   0  0  0  0  0  0  0  0  0  0  0  0
    4.7940   31.0910   17.2640 C   0  0  0  0  0  0  0  0  0  0  0  0
    5.1950   32.2020   18.2370 C   0  0  0  0  0  0  0  0  0  0  0  0
    5.3090   31.7260   19.6890 C   0  0  0  0  0  0  0  0  0  0  0  0
    6.6990   31.8500   20.3220 C   0  0  0  0  0  0  0  0  0  0  0  0
    7.8350   32.2260   19.3660 C   0  0  0  0  0  0  0  0  0  0  0  0
    9.1960   31.6790   19.7940 C   0  0  0  0  0  0  0  0  0  0  0  0
    9.5570   31.9560   21.2580 C   0  0  0  0  0  0  0  0  0  0  0  0
   10.8750   31.3300   21.7320 C   0  0  0  0  0  0  0  0  0  0  0  0
   11.4630   32.0410   22.9550 C   0  0  0  0  0  0  0  0  0  0  0  0
   10.3990   32.6230   23.8920 C   0  0  0  0  0  0  0  0  0  0  0  0
   10.7640   32.6630   25.3790 C   0  0  0  0  0  0  0  0  0  0  0  0
   12.0960   33.3380   25.7230 C   0  0  0  0  0  0  0  0  0  0  0  0
   12.2020   33.7780   27.1860 C   0  0  0  0  0  0  0  0  0  0  0  0
   12.0430   35.2880   27.3480 C   0  0  0  0  0  0  0  0  0  0  0  0
   13.0580   35.8810   28.2860 C   0  0  0  0  0  0  0  0  0  0  0  0
   13.1790   35.6220   29.4710 O   0  0  0  0  0  0  0  0  0  0  0  0
   13.8880   36.7520   27.6860 O   0  0  0  0  0  0  0  0  0  0  0  0
    7.9039   29.2185   18.4106 H   0  0  0  0  0  0  0  0  0  0  0  0
    8.2337   28.1075   17.0382 H   0  0  0  0  0  0  0  0  0  0  0  0
    8.9259   29.7650   17.0382 H   0  0  0  0  0  0  0  0  0  0  0  0
    7.0495   30.6592   16.1806 H   0  0  0  0  0  0  0  0  0  0  0  0
    6.5597   28.9331   15.8341 H   0  0  0  0  0  0  0  0  0  0  0  0
    4.9375   28.9478   17.3572 H   0  0  0  0  0  0  0  0  0  0  0  0
    5.9677   29.8628   18.5545 H   0  0  0  0  0  0  0  0  0  0  0  0
    4.9801   31.4313   16.2347 H   0  0  0  0  0  0  0  0  0  0  0  0
    3.7273   30.8671   17.4121 H   0  0  0  0  0  0  0  0  0  0  0  0
    6.1697   32.6046   17.9243 H   0  0  0  0  0  0  0  0  0  0  0  0
    4.4019   32.9635   18.2058 H   0  0  0  0  0  0  0  0  0  0  0  0
    4.6077   32.3185   20.2949 H   0  0  0  0  0  0  0  0  0  0  0  0
    5.0832   30.6496   19.6701 H   0  0  0  0  0  0  0  0  0  0  0  0
    6.6463   32.6220   21.1038 H   0  0  0  0  0  0  0  0  0  0  0  0
    6.9460   30.8469   20.7000 H   0  0  0  0  0  0  0  0  0  0  0  0
    7.5973   31.8276   18.3686 H   0  0  0  0  0  0  0  0  0  0  0  0
    7.9112   33.3234   19.3687 H   0  0  0  0  0  0  0  0  0  0  0  0
    9.1930   30.5898   19.6404 H   0  0  0  0  0  0  0  0  0  0  0  0
    9.9493   32.1959   19.1813 H   0  0  0  0  0  0  0  0  0  0  0  0
    9.6298   33.0455   21.3909 H   0  0  0  0  0  0  0  0  0  0  0  0
    8.7629   31.4935   21.8625 H   0  0  0  0  0  0  0  0  0  0  0  0
   10.6907   30.2772   21.9922 H   0  0  0  0  0  0  0  0  0  0  0  0
   11.6015   31.4260   20.9116 H   0  0  0  0  0  0  0  0  0  0  0  0
   12.0679   31.3175   23.5213 H   0  0  0  0  0  0  0  0  0  0  0  0
   12.0632   32.8842   22.5824 H   0  0  0  0  0  0  0  0  0  0  0  0
   10.1927   33.6538   23.5681 H   0  0  0  0  0  0  0  0  0  0  0  0
    9.5350   31.9464   23.8166 H   0  0  0  0  0  0  0  0  0  0  0  0
    9.9655   33.2041   25.9077 H   0  0  0  0  0  0  0  0  0  0  0  0
   10.8741   31.6127   25.6870 H   0  0  0  0  0  0  0  0  0  0  0  0
   12.9096   32.6279   25.5139 H   0  0  0  0  0  0  0  0  0  0  0  0
   12.1647   34.2471   25.1075 H   0  0  0  0  0  0  0  0  0  0  0  0
   11.4137   33.2748   27.7651 H   0  0  0  0  0  0  0  0  0  0  0  0
   13.2033   33.5033   27.5492 H   0  0  0  0  0  0  0  0  0  0  0  0
   12.1563   35.7616   26.3617 H   0  0  0  0  0  0  0  0  0  0  0  0
   11.0468   35.4732   27.7761 H   0  0  0  0  0  0  0  0  0  0  0  0
  1  2  1  0
  2  3  1  0
  3  4  1  0
  4  5  1  0
  5  6  1  0
  6  7  1  0
  7  8  1  0
  8  9  1  0
  9 10  1  0
 10 11  1  0
 11 12  1  0
 12 13  1  0
 13 14  1  0
 14 15  1  0
 15 16  1  0
 16 17  1  0
 17 18  1  0
 18 19  2  0
 18 20  1  0
  1 21  1  0
  1 22  1  0
  1 23  1  0
  2 24  1  0
  2 25  1  0
  3 26  1  0
  3 27  1  0
  4 28  1  0
  4 29  1  0
  5 30  1  0
  5 31  1  0
  6 32  1  0
  6 33  1  0
  7 34  1  0
  7 35  1  0
  8 36  1  0
  8 37  1  0
  9 38  1  0
  9 39  1  0
 10 40  1  0
 10 41  1  0
 11 42  1  0
 11 43  1  0
 12 44  1  0
 12 45  1  0
 13 46  1  0
 13 47  1  0
 14 48  1  0
 14 49  1  0
 15 50  1  0
 15 51  1  0
 16 52  1  0
 16 53  1  0
 17 54  1  0
 17 55  1  0
M  CHG  1  20  -1
M  END
>  <meeko>  (10) 
{"is_sidechain": [false], "free_energy": -5.495, "intermolecular_energy": -11.944, "internal_energy": -1.205}

$$$$
stearate_Clobe_run03
     RDKit          3D

 55 54  0  0  0  0  0  0  0  0999 V2000
    4.8170   34.7360   16.1420 C   0  0  0  0  0  0  0  0  0  0  0  0
    3.6920   33.7470   16.4080 C   0  0  0  0  0  0  0  0  0  0  0  0
    4.1730   32.4170   16.9930 C   0  0  0  0  0  0  0  0  0  0  0  0
    5.3050   32.5770   18.0110 C   0  0  0  0  0  0  0  0  0  0  0  0
    5.2230   31.5070   19.1020 C   0  0  0  0  0  0  0  0  0  0  0  0
    6.5060   30.6810   19.2430 C   0  0  0  0  0  0  0  0  0  0  0  0
    6.5870   29.4250   18.3700 C   0  0  0  0  0  0  0  0  0  0  0  0
    6.7830   29.6670   16.8710 C   0  0  0  0  0  0  0  0  0  0  0  0
    8.2100   30.0670   16.5010 C   0  0  0  0  0  0  0  0  0  0  0  0
    8.3920   31.5610   16.2040 C   0  0  0  0  0  0  0  0  0  0  0  0
    9.2940   32.3140   17.1910 C   0  0  0  0  0  0  0  0  0  0  0  0
   10.2720   31.3900   17.9230 C   0  0  0  0  0  0  0  0  0  0  0  0
   10.4690   31.7550   19.3980 C   0  0  0  0  0  0  0  0  0  0  0  0
    9.2460   31.5740   20.3040 C   0  0  0  0  0  0  0  0  0  0  0  0
    9.3910   32.1020   21.7350 C   0  0  0  0  0  0  0  0  0  0  0  0
   10.8450   32.3130   22.1680 C   0  0  0  0  0  0  0  0  0  0  0  0
   10.9990   32.3200   23.6870 C   0  0  0  0  0  0  0  0  0  0  0  0
   12.4140   32.0650   24.1270 C   0  0  0  0  0  0  0  0  0  0  0  0
   12.8240   32.0810   25.2750 O   0  0  0  0  0  0  0  0  0  0  0  0
   13.2420   31.7760   23.1070 O   0  0  0  0  0  0  0  0  0  0  0  0
    5.2243   35.0941   17.0990 H   0  0  0  0  0  0  0  0  0  0  0  0
    5.6130   34.2400   15.5673 H   0  0  0  0  0  0  0  0  0  0  0  0
    4.4270   35.5890   15.5673 H   0  0  0  0  0  0  0  0  0  0  0  0
    2.9868   34.2046   17.1175 H   0  0  0  0  0  0  0  0  0  0  0  0
    3.2227   33.5229   15.4387 H   0  0  0  0  0  0  0  0  0  0  0  0
    3.3231   31.9266   17.4902 H   0  0  0  0  0  0  0  0  0  0  0  0
    4.5674   31.8180   16.1589 H   0  0  0  0  0  0  0  0  0  0  0  0
    6.2703   32.4865   17.4914 H   0  0  0  0  0  0  0  0  0  0  0  0
    5.2107   33.5654   18.4845 H   0  0  0  0  0  0  0  0  0  0  0  0
    5.0207   32.0034   20.0626 H   0  0  0  0  0  0  0  0  0  0  0  0
    4.4198   30.8123   18.8153 H   0  0  0  0  0  0  0  0  0  0  0  0
    7.3556   31.3292   18.9821 H   0  0  0  0  0  0  0  0  0  0  0  0
    6.5199   30.3242   20.2834 H   0  0  0  0  0  0  0  0  0  0  0  0
    7.4329   28.8194   18.7275 H   0  0  0  0  0  0  0  0  0  0  0  0
    5.6096   28.9299   18.4674 H   0  0  0  0  0  0  0  0  0  0  0  0
    6.5299   28.7417   16.3327 H   0  0  0  0  0  0  0  0  0  0  0  0
    6.1283   30.5050   16.5897 H   0  0  0  0  0  0  0  0  0  0  0  0
    8.8706   29.7998   17.3390 H   0  0  0  0  0  0  0  0  0  0  0  0
    8.4562   29.5300   15.5731 H   0  0  0  0  0  0  0  0  0  0  0  0
    8.8297   31.6582   15.1995 H   0  0  0  0  0  0  0  0  0  0  0  0
    7.3941   32.0154   16.2919 H   0  0  0  0  0  0  0  0  0  0  0  0
    9.8712   33.0677   16.6353 H   0  0  0  0  0  0  0  0  0  0  0  0
    8.6438   32.7759   17.9486 H   0  0  0  0  0  0  0  0  0  0  0  0
    9.8871   30.3610   17.8672 H   0  0  0  0  0  0  0  0  0  0  0  0
   11.2493   31.4968   17.4296 H   0  0  0  0  0  0  0  0  0  0  0  0
   11.2784   31.1250   19.7954 H   0  0  0  0  0  0  0  0  0  0  0  0
   10.6901   32.8325   19.4099 H   0  0  0  0  0  0  0  0  0  0  0  0
    8.3990   32.0969   19.8358 H   0  0  0  0  0  0  0  0  0  0  0  0
    9.1040   30.4874   20.3999 H   0  0  0  0  0  0  0  0  0  0  0  0
    8.8643   33.0652   21.8050 H   0  0  0  0  0  0  0  0  0  0  0  0
    8.9632   31.3407   22.4039 H   0  0  0  0  0  0  0  0  0  0  0  0
   11.4596   31.5004   21.7533 H   0  0  0  0  0  0  0  0  0  0  0  0
   11.1708   33.2937   21.7909 H   0  0  0  0  0  0  0  0  0  0  0  0
   10.6833   33.3023   24.0684 H   0  0  0  0  0  0  0  0  0  0  0  0
   10.3744   31.5084   24.0885 H   0  0  0  0  0  0  0  0  0  0  0  0
  1  2  1  0
  2  3  1  0
  3  4  1  0
  4  5  1  0
  5  6  1  0
  6  7  1  0
  7  8  1  0
  8  9  1  0
  9 10  1  0
 10 11  1  0
 11 12  1  0
 12 13  1  0
 13 14  1  0
 14 15  1  0
 15 16  1  0
 16 17  1  0
 17 18  1  0
 18 19  2  0
 18 20  1  0
  1 21  1  0
  1 22  1  0
  1 23  1  0
  2 24  1  0
  2 25  1  0
  3 26  1  0
  3 27  1  0
  4 28  1  0
  4 29  1  0
  5 30  1  0
  5 31  1  0
  6 32  1  0
  6 33  1  0
  7 34  1  0
  7 35  1  0
  8 36  1  0
  8 37  1  0
  9 38  1  0
  9 39  1  0
 10 40  1  0
 10 41  1  0
 11 42  1  0
 11 43  1  0
 12 44  1  0
 12 45  1  0
 13 46  1  0
 13 47  1  0
 14 48  1  0
 14 49  1  0
 15 50  1  0
 15 51  1  0
 16 52  1  0
 16 53  1  0
 17 54  1  0
 17 55  1  0
M  CHG  1  20  -1
M  END
>  <meeko>  (11) 
{"is_sidechain": [false], "free_energy": -5.494, "intermolecular_energy": -11.692, "internal_energy": -1.456}

$$$$
stearate_Clobe_run03
     RDKit          3D

 55 54  0  0  0  0  0  0  0  0999 V2000
    4.6720   34.2780   16.2770 C   0  0  0  0  0  0  0  0  0  0  0  0
    4.2510   33.0370   17.0500 C   0  0  0  0  0  0  0  0  0  0  0  0
    5.3720   32.4380   17.9030 C   0  0  0  0  0  0  0  0  0  0  0  0
    4.9730   31.1350   18.6000 C   0  0  0  0  0  0  0  0  0  0  0  0
    6.0040   30.0330   18.3450 C   0  0  0  0  0  0  0  0  0  0  0  0
    6.4920   29.9810   16.8930 C   0  0  0  0  0  0  0  0  0  0  0  0
    8.0120   30.0200   16.7020 C   0  0  0  0  0  0  0  0  0  0  0  0
    8.6130   31.4000   16.4180 C   0  0  0  0  0  0  0  0  0  0  0  0
    9.5640   31.8860   17.5100 C   0  0  0  0  0  0  0  0  0  0  0  0
    8.8660   32.5120   18.7240 C   0  0  0  0  0  0  0  0  0  0  0  0
    9.2480   31.9010   20.0790 C   0  0  0  0  0  0  0  0  0  0  0  0
   10.7430   31.5880   20.1870 C   0  0  0  0  0  0  0  0  0  0  0  0
   11.2020   31.2880   21.6180 C   0  0  0  0  0  0  0  0  0  0  0  0
   10.5300   32.1080   22.7250 C   0  0  0  0  0  0  0  0  0  0  0  0
   11.2730   32.1580   24.0640 C   0  0  0  0  0  0  0  0  0  0  0  0
   10.5130   32.9100   25.1600 C   0  0  0  0  0  0  0  0  0  0  0  0
   11.4500   33.6630   26.1010 C   0  0  0  0  0  0  0  0  0  0  0  0
   11.5440   33.0260   27.4600 C   0  0  0  0  0  0  0  0  0  0  0  0
   10.6090   32.6250   28.1310 O   0  0  0  0  0  0  0  0  0  0  0  0
   12.8090   32.9010   27.9000 O   0  0  0  0  0  0  0  0  0  0  0  0
    4.9427   35.0760   16.9840 H   0  0  0  0  0  0  0  0  0  0  0  0
    5.5394   34.0391   15.6441 H   0  0  0  0  0  0  0  0  0  0  0  0
    3.8383   34.6161   15.6441 H   0  0  0  0  0  0  0  0  0  0  0  0
    3.4156   33.3067   17.7129 H   0  0  0  0  0  0  0  0  0  0  0  0
    3.9671   32.2755   16.3087 H   0  0  0  0  0  0  0  0  0  0  0  0
    6.2355   32.2355   17.2523 H   0  0  0  0  0  0  0  0  0  0  0  0
    5.6082   33.1691   18.6902 H   0  0  0  0  0  0  0  0  0  0  0  0
    4.9004   31.3149   19.6828 H   0  0  0  0  0  0  0  0  0  0  0  0
    4.0043   30.8061   18.1958 H   0  0  0  0  0  0  0  0  0  0  0  0
    6.8713   30.2088   18.9984 H   0  0  0  0  0  0  0  0  0  0  0  0
    5.5120   29.0723   18.5571 H   0  0  0  0  0  0  0  0  0  0  0  0
    6.1186   29.0489   16.4439 H   0  0  0  0  0  0  0  0  0  0  0  0
    6.1057   30.8925   16.4136 H   0  0  0  0  0  0  0  0  0  0  0  0
    8.4776   29.6315   17.6198 H   0  0  0  0  0  0  0  0  0  0  0  0
    8.2161   29.4151   15.8062 H   0  0  0  0  0  0  0  0  0  0  0  0
    9.1682   31.3497   15.4697 H   0  0  0  0  0  0  0  0  0  0  0  0
    7.7777   32.1144   16.3745 H   0  0  0  0  0  0  0  0  0  0  0  0
   10.1559   31.0268   17.8584 H   0  0  0  0  0  0  0  0  0  0  0  0
   10.1816   32.6772   17.0598 H   0  0  0  0  0  0  0  0  0  0  0  0
    9.1193   33.5822   18.7488 H   0  0  0  0  0  0  0  0  0  0  0  0
    7.7908   32.3202   18.5928 H   0  0  0  0  0  0  0  0  0  0  0  0
    8.9793   32.6123   20.8738 H   0  0  0  0  0  0  0  0  0  0  0  0
    8.7021   30.9514   20.1805 H   0  0  0  0  0  0  0  0  0  0  0  0
   10.9615   30.7110   19.5600 H   0  0  0  0  0  0  0  0  0  0  0  0
   11.2865   32.4844   19.8537 H   0  0  0  0  0  0  0  0  0  0  0  0
   11.0037   30.2249   21.8191 H   0  0  0  0  0  0  0  0  0  0  0  0
   12.2670   31.5614   21.6513 H   0  0  0  0  0  0  0  0  0  0  0  0
   10.4209   33.1403   22.3611 H   0  0  0  0  0  0  0  0  0  0  0  0
    9.5752   31.6028   22.9325 H   0  0  0  0  0  0  0  0  0  0  0  0
   11.4444   31.1264   24.4051 H   0  0  0  0  0  0  0  0  0  0  0  0
   12.2124   32.7035   23.8910 H   0  0  0  0  0  0  0  0  0  0  0  0
    9.8316   33.6321   24.6865 H   0  0  0  0  0  0  0  0  0  0  0  0
    9.9607   32.1688   25.7564 H   0  0  0  0  0  0  0  0  0  0  0  0
   12.4544   33.6860   25.6531 H   0  0  0  0  0  0  0  0  0  0  0  0
   11.0412   34.6752   26.2365 H   0  0  0  0  0  0  0  0  0  0  0  0
  1  2  1  0
  2  3  1  0
  3  4  1  0
  4  5  1  0
  5  6  1  0
  6  7  1  0
  7  8  1  0
  8  9  1  0
  9 10  1  0
 10 11  1  0
 11 12  1  0
 12 13  1  0
 13 14  1  0
 14 15  1  0
 15 16  1  0
 16 17  1  0
 17 18  1  0
 18 19  2  0
 18 20  1  0
  1 21  1  0
  1 22  1  0
  1 23  1  0
  2 24  1  0
  2 25  1  0
  3 26  1  0
  3 27  1  0
  4 28  1  0
  4 29  1  0
  5 30  1  0
  5 31  1  0
  6 32  1  0
  6 33  1  0
  7 34  1  0
  7 35  1  0
  8 36  1  0
  8 37  1  0
  9 38  1  0
  9 39  1  0
 10 40  1  0
 10 41  1  0
 11 42  1  0
 11 43  1  0
 12 44  1  0
 12 45  1  0
 13 46  1  0
 13 47  1  0
 14 48  1  0
 14 49  1  0
 15 50  1  0
 15 51  1  0
 16 52  1  0
 16 53  1  0
 17 54  1  0
 17 55  1  0
M  CHG  1  20  -1
M  END
>  <meeko>  (12) 
{"is_sidechain": [false], "free_energy": -5.489, "intermolecular_energy": -11.778, "internal_energy": -1.359}

$$$$
stearate_Clobe_run03
     RDKit          3D

 55 54  0  0  0  0  0  0  0  0999 V2000
   12.0420   34.4980   29.0160 C   0  0  0  0  0  0  0  0  0  0  0  0
   12.1550   35.2580   27.7030 C   0  0  0  0  0  0  0  0  0  0  0  0
   10.9700   35.0330   26.7610 C   0  0  0  0  0  0  0  0  0  0  0  0
   10.9700   33.6490   26.1060 C   0  0  0  0  0  0  0  0  0  0  0  0
   12.3430   33.3180   25.5150 C   0  0  0  0  0  0  0  0  0  0  0  0
   12.2780   32.3340   24.3420 C   0  0  0  0  0  0  0  0  0  0  0  0
   10.8710   31.9360   23.8850 C   0  0  0  0  0  0  0  0  0  0  0  0
   10.4440   32.4610   22.5110 C   0  0  0  0  0  0  0  0  0  0  0  0
   10.4690   31.3940   21.4180 C   0  0  0  0  0  0  0  0  0  0  0  0
    9.8400   31.8340   20.0900 C   0  0  0  0  0  0  0  0  0  0  0  0
   10.7900   31.8200   18.8850 C   0  0  0  0  0  0  0  0  0  0  0  0
   10.5510   32.9940   17.9300 C   0  0  0  0  0  0  0  0  0  0  0  0
   10.2810   32.5600   16.4850 C   0  0  0  0  0  0  0  0  0  0  0  0
    8.8260   32.6570   16.0150 C   0  0  0  0  0  0  0  0  0  0  0  0
    7.8220   33.1700   17.0530 C   0  0  0  0  0  0  0  0  0  0  0  0
    7.0700   32.0540   17.7840 C   0  0  0  0  0  0  0  0  0  0  0  0
    7.1100   30.7330   17.0190 C   0  0  0  0  0  0  0  0  0  0  0  0
    7.8340   29.6500   17.7690 C   0  0  0  0  0  0  0  0  0  0  0  0
    8.9420   29.2130   17.5090 O   0  0  0  0  0  0  0  0  0  0  0  0
    7.1430   29.1840   18.8250 O   0  0  0  0  0  0  0  0  0  0  0  0
   12.1464   35.2002   29.8563 H   0  0  0  0  0  0  0  0  0  0  0  0
   11.0606   34.0042   29.0706 H   0  0  0  0  0  0  0  0  0  0  0  0
   12.8373   33.7401   29.0706 H   0  0  0  0  0  0  0  0  0  0  0  0
   12.2213   36.3327   27.9278 H   0  0  0  0  0  0  0  0  0  0  0  0
   13.0518   34.8821   27.1888 H   0  0  0  0  0  0  0  0  0  0  0  0
   10.0398   35.1464   27.3371 H   0  0  0  0  0  0  0  0  0  0  0  0
   11.0510   35.7753   25.9532 H   0  0  0  0  0  0  0  0  0  0  0  0
   10.7133   32.8934   26.8631 H   0  0  0  0  0  0  0  0  0  0  0  0
   10.2302   33.6481   25.2919 H   0  0  0  0  0  0  0  0  0  0  0  0
   12.8052   34.2517   25.1620 H   0  0  0  0  0  0  0  0  0  0  0  0
   12.9323   32.8379   26.3101 H   0  0  0  0  0  0  0  0  0  0  0  0
   12.7937   32.7940   23.4862 H   0  0  0  0  0  0  0  0  0  0  0  0
   12.7493   31.4075   24.7018 H   0  0  0  0  0  0  0  0  0  0  0  0
   10.8234   30.8374   23.8564 H   0  0  0  0  0  0  0  0  0  0  0  0
   10.1806   32.3946   24.6082 H   0  0  0  0  0  0  0  0  0  0  0  0
    9.4197   32.8539   22.5910 H   0  0  0  0  0  0  0  0  0  0  0  0
   11.1667   33.2382   22.2220 H   0  0  0  0  0  0  0  0  0  0  0  0
   11.5173   31.1200   21.2283 H   0  0  0  0  0  0  0  0  0  0  0  0
    9.8662   30.5513   21.7874 H   0  0  0  0  0  0  0  0  0  0  0  0
    9.0002   31.1584   19.8700 H   0  0  0  0  0  0  0  0  0  0  0  0
    9.5341   32.8816   20.2275 H   0  0  0  0  0  0  0  0  0  0  0  0
   11.8255   31.8706   19.2526 H   0  0  0  0  0  0  0  0  0  0  0  0
   10.6022   30.8923   18.3246 H   0  0  0  0  0  0  0  0  0  0  0  0
    9.6826   33.5650   18.2903 H   0  0  0  0  0  0  0  0  0  0  0  0
   11.4711   33.5967   17.9208 H   0  0  0  0  0  0  0  0  0  0  0  0
   10.8911   33.1931   15.8239 H   0  0  0  0  0  0  0  0  0  0  0  0
   10.5349   31.4905   16.4444 H   0  0  0  0  0  0  0  0  0  0  0  0
    8.7952   33.3371   15.1510 H   0  0  0  0  0  0  0  0  0  0  0  0
    8.5173   31.6266   15.7850 H   0  0  0  0  0  0  0  0  0  0  0  0
    8.3674   33.7676   17.7983 H   0  0  0  0  0  0  0  0  0  0  0  0
    7.0710   33.7621   16.5095 H   0  0  0  0  0  0  0  0  0  0  0  0
    7.5303   31.9051   18.7719 H   0  0  0  0  0  0  0  0  0  0  0  0
    6.0172   32.3597   17.8742 H   0  0  0  0  0  0  0  0  0  0  0  0
    6.0774   30.4025   16.8333 H   0  0  0  0  0  0  0  0  0  0  0  0
    7.6559   30.9090   16.0804 H   0  0  0  0  0  0  0  0  0  0  0  0
  1  2  1  0
  2  3  1  0
  3  4  1  0
  4  5  1  0
  5  6  1  0
  6  7  1  0
  7  8  1  0
  8  9  1  0
  9 10  1  0
 10 11  1  0
 11 12  1  0
 12 13  1  0
 13 14  1  0
 14 15  1  0
 15 16  1  0
 16 17  1  0
 17 18  1  0
 18 19  2  0
 18 20  1  0
  1 21  1  0
  1 22  1  0
  1 23  1  0
  2 24  1  0
  2 25  1  0
  3 26  1  0
  3 27  1  0
  4 28  1  0
  4 29  1  0
  5 30  1  0
  5 31  1  0
  6 32  1  0
  6 33  1  0
  7 34  1  0
  7 35  1  0
  8 36  1  0
  8 37  1  0
  9 38  1  0
  9 39  1  0
 10 40  1  0
 10 41  1  0
 11 42  1  0
 11 43  1  0
 12 44  1  0
 12 45  1  0
 13 46  1  0
 13 47  1  0
 14 48  1  0
 14 49  1  0
 15 50  1  0
 15 51  1  0
 16 52  1  0
 16 53  1  0
 17 54  1  0
 17 55  1  0
M  CHG  1  20  -1
M  END
>  <meeko>  (13) 
{"is_sidechain": [false], "free_energy": -5.448, "intermolecular_energy": -11.705, "internal_energy": -1.352}

$$$$
stearate_Clobe_run03
     RDKit          3D

 55 54  0  0  0  0  0  0  0  0999 V2000
    6.3190   29.6970   16.9220 C   0  0  0  0  0  0  0  0  0  0  0  0
    7.8360   29.6470   17.0320 C   0  0  0  0  0  0  0  0  0  0  0  0
    8.5310   30.8960   16.4840 C   0  0  0  0  0  0  0  0  0  0  0  0
    8.3890   32.1170   17.3960 C   0  0  0  0  0  0  0  0  0  0  0  0
    9.7570   32.7040   17.7520 C   0  0  0  0  0  0  0  0  0  0  0  0
   10.7410   31.6630   18.2960 C   0  0  0  0  0  0  0  0  0  0  0  0
   10.9380   31.6630   19.8150 C   0  0  0  0  0  0  0  0  0  0  0  0
    9.6550   31.6620   20.6520 C   0  0  0  0  0  0  0  0  0  0  0  0
    9.8480   32.2170   22.0620 C   0  0  0  0  0  0  0  0  0  0  0  0
   11.2950   32.1710   22.5670 C   0  0  0  0  0  0  0  0  0  0  0  0
   11.4540   32.2300   24.0920 C   0  0  0  0  0  0  0  0  0  0  0  0
   10.2160   32.7980   24.7940 C   0  0  0  0  0  0  0  0  0  0  0  0
   10.4620   33.1660   26.2610 C   0  0  0  0  0  0  0  0  0  0  0  0
   11.1410   34.5160   26.5100 C   0  0  0  0  0  0  0  0  0  0  0  0
   12.5590   34.4550   27.0880 C   0  0  0  0  0  0  0  0  0  0  0  0
   12.7270   33.4100   28.1940 C   0  0  0  0  0  0  0  0  0  0  0  0
   12.7930   34.0440   29.5820 C   0  0  0  0  0  0  0  0  0  0  0  0
   14.1230   33.8350   30.2520 C   0  0  0  0  0  0  0  0  0  0  0  0
   14.9050   32.9260   30.0300 O   0  0  0  0  0  0  0  0  0  0  0  0
   14.4190   34.7910   31.1520 O   0  0  0  0  0  0  0  0  0  0  0  0
    5.8786   29.7115   17.9299 H   0  0  0  0  0  0  0  0  0  0  0  0
    6.0205   30.6055   16.3783 H   0  0  0  0  0  0  0  0  0  0  0  0
    5.9614   28.8102   16.3783 H   0  0  0  0  0  0  0  0  0  0  0  0
    8.1044   29.5368   18.0930 H   0  0  0  0  0  0  0  0  0  0  0  0
    8.1759   28.7955   16.4242 H   0  0  0  0  0  0  0  0  0  0  0  0
    9.6014   30.6745   16.3613 H   0  0  0  0  0  0  0  0  0  0  0  0
    8.0471   31.1452   15.5281 H   0  0  0  0  0  0  0  0  0  0  0  0
    7.7931   32.8836   16.8791 H   0  0  0  0  0  0  0  0  0  0  0  0
    7.8927   31.8016   18.3256 H   0  0  0  0  0  0  0  0  0  0  0  0
   10.1901   33.1539   16.8465 H   0  0  0  0  0  0  0  0  0  0  0  0
    9.5956   33.4463   18.5476 H   0  0  0  0  0  0  0  0  0  0  0  0
   10.3758   30.6676   18.0029 H   0  0  0  0  0  0  0  0  0  0  0  0
   11.7199   31.9240   17.8674 H   0  0  0  0  0  0  0  0  0  0  0  0
   11.5154   30.7652   20.0808 H   0  0  0  0  0  0  0  0  0  0  0  0
   11.4487   32.6083   20.0508 H   0  0  0  0  0  0  0  0  0  0  0  0
    8.9020   32.2759   20.1361 H   0  0  0  0  0  0  0  0  0  0  0  0
    9.3375   30.6141   20.7570 H   0  0  0  0  0  0  0  0  0  0  0  0
    9.5144   33.2652   22.0680 H   0  0  0  0  0  0  0  0  0  0  0  0
    9.2595   31.5765   22.7353 H   0  0  0  0  0  0  0  0  0  0  0  0
   11.7500   31.2342   22.2129 H   0  0  0  0  0  0  0  0  0  0  0  0
   11.7861   33.0728   22.1725 H   0  0  0  0  0  0  0  0  0  0  0  0
   11.6348   31.2117   24.4666 H   0  0  0  0  0  0  0  0  0  0  0  0
   12.2978   32.9003   24.3124 H   0  0  0  0  0  0  0  0  0  0  0  0
    9.8952   33.7028   24.2569 H   0  0  0  0  0  0  0  0  0  0  0  0
    9.4469   32.0117   24.7816 H   0  0  0  0  0  0  0  0  0  0  0  0
    9.4882   33.1797   26.7723 H   0  0  0  0  0  0  0  0  0  0  0  0
   11.1609   32.4076   26.6437 H   0  0  0  0  0  0  0  0  0  0  0  0
   11.1910   35.0504   25.5498 H   0  0  0  0  0  0  0  0  0  0  0  0
   10.5299   35.0206   27.2728 H   0  0  0  0  0  0  0  0  0  0  0  0
   13.2565   34.2132   26.2726 H   0  0  0  0  0  0  0  0  0  0  0  0
   12.7655   35.4369   27.5387 H   0  0  0  0  0  0  0  0  0  0  0  0
   11.8722   32.7185   28.1607 H   0  0  0  0  0  0  0  0  0  0  0  0
   13.6761   32.8823   28.0185 H   0  0  0  0  0  0  0  0  0  0  0  0
   12.6141   35.1249   29.4842 H   0  0  0  0  0  0  0  0  0  0  0  0
   12.0268   33.5600   30.2055 H   0  0  0  0  0  0  0  0  0  0  0  0
  1  2  1  0
  2  3  1  0
  3  4  1  0
  4  5  1  0
  5  6  1  0
  6  7  1  0
  7  8  1  0
  8  9  1  0
  9 10  1  0
 10 11  1  0
 11 12  1  0
 12 13  1  0
 13 14  1  0
 14 15  1  0
 15 16  1  0
 16 17  1  0
 17 18  1  0
 18 19  2  0
 18 20  1  0
  1 21  1  0
  1 22  1  0
  1 23  1  0
  2 24  1  0
  2 25  1  0
  3 26  1  0
  3 27  1  0
  4 28  1  0
  4 29  1  0
  5 30  1  0
  5 31  1  0
  6 32  1  0
  6 33  1  0
  7 34  1  0
  7 35  1  0
  8 36  1  0
  8 37  1  0
  9 38  1  0
  9 39  1  0
 10 40  1  0
 10 41  1  0
 11 42  1  0
 11 43  1  0
 12 44  1  0
 12 45  1  0
 13 46  1  0
 13 47  1  0
 14 48  1  0
 14 49  1  0
 15 50  1  0
 15 51  1  0
 16 52  1  0
 16 53  1  0
 17 54  1  0
 17 55  1  0
M  CHG  1  20  -1
M  END
>  <meeko>  (14) 
{"is_sidechain": [false], "free_energy": -5.432, "intermolecular_energy": -12.052, "internal_energy": -0.974}

$$$$
stearate_Clobe_run03
     RDKit          3D

 55 54  0  0  0  0  0  0  0  0999 V2000
    4.3430   31.2720   17.2510 C   0  0  0  0  0  0  0  0  0  0  0  0
    4.8250   32.1360   18.4070 C   0  0  0  0  0  0  0  0  0  0  0  0
    5.4770   31.3360   19.5380 C   0  0  0  0  0  0  0  0  0  0  0  0
    5.5750   32.1140   20.8520 C   0  0  0  0  0  0  0  0  0  0  0  0
    7.0340   32.3600   21.2430 C   0  0  0  0  0  0  0  0  0  0  0  0
    7.1940   33.3150   22.4310 C   0  0  0  0  0  0  0  0  0  0  0  0
    8.6230   33.7880   22.7160 C   0  0  0  0  0  0  0  0  0  0  0  0
    9.3960   32.9770   23.7600 C   0  0  0  0  0  0  0  0  0  0  0  0
   10.6540   32.3120   23.2040 C   0  0  0  0  0  0  0  0  0  0  0  0
   10.4040   31.3910   22.0030 C   0  0  0  0  0  0  0  0  0  0  0  0
   11.1460   31.7820   20.7190 C   0  0  0  0  0  0  0  0  0  0  0  0
   10.2220   31.8510   19.4990 C   0  0  0  0  0  0  0  0  0  0  0  0
   10.9710   31.8180   18.1630 C   0  0  0  0  0  0  0  0  0  0  0  0
   10.4640   32.7810   17.0850 C   0  0  0  0  0  0  0  0  0  0  0  0
    9.0410   33.3150   17.2810 C   0  0  0  0  0  0  0  0  0  0  0  0
    7.9530   32.3630   16.7770 C   0  0  0  0  0  0  0  0  0  0  0  0
    8.5370   31.1260   16.0970 C   0  0  0  0  0  0  0  0  0  0  0  0
    8.0090   29.8420   16.6760 C   0  0  0  0  0  0  0  0  0  0  0  0
    6.9310   29.3310   16.4260 O   0  0  0  0  0  0  0  0  0  0  0  0
    8.8720   29.2500   17.5220 O   0  0  0  0  0  0  0  0  0  0  0  0
    3.8430   30.3757   17.6468 H   0  0  0  0  0  0  0  0  0  0  0  0
    3.6344   31.8454   16.6353 H   0  0  0  0  0  0  0  0  0  0  0  0
    5.2031   30.9703   16.6353 H   0  0  0  0  0  0  0  0  0  0  0  0
    5.5616   32.8555   18.0202 H   0  0  0  0  0  0  0  0  0  0  0  0
    3.9394   32.6321   18.8309 H   0  0  0  0  0  0  0  0  0  0  0  0
    4.8799   30.4289   19.7131 H   0  0  0  0  0  0  0  0  0  0  0  0
    6.5040   31.1018   19.2210 H   0  0  0  0  0  0  0  0  0  0  0  0
    5.0671   33.0826   20.7341 H   0  0  0  0  0  0  0  0  0  0  0  0
    5.0978   31.5193   21.6449 H   0  0  0  0  0  0  0  0  0  0  0  0
    7.4914   31.3952   21.5074 H   0  0  0  0  0  0  0  0  0  0  0  0
    7.5262   32.8313   20.3795 H   0  0  0  0  0  0  0  0  0  0  0  0
    6.5765   34.2041   22.2353 H   0  0  0  0  0  0  0  0  0  0  0  0
    6.8850   32.7434   23.3186 H   0  0  0  0  0  0  0  0  0  0  0  0
    9.1866   33.7481   21.7722 H   0  0  0  0  0  0  0  0  0  0  0  0
    8.5254   34.8002   23.1353 H   0  0  0  0  0  0  0  0  0  0  0  0
    9.6908   33.6519   24.5771 H   0  0  0  0  0  0  0  0  0  0  0  0
    8.7293   32.1726   24.1042 H   0  0  0  0  0  0  0  0  0  0  0  0
   11.3523   33.1027   22.8921 H   0  0  0  0  0  0  0  0  0  0  0  0
   11.0564   31.6783   24.0080 H   0  0  0  0  0  0  0  0  0  0  0  0
   10.7177   30.3742   22.2819 H   0  0  0  0  0  0  0  0  0  0  0  0
    9.3311   31.4704   21.7736 H   0  0  0  0  0  0  0  0  0  0  0  0
   11.6082   32.7692   20.8665 H   0  0  0  0  0  0  0  0  0  0  0  0
   11.8993   31.0052   20.5213 H   0  0  0  0  0  0  0  0  0  0  0  0
    9.5343   30.9932   19.5340 H   0  0  0  0  0  0  0  0  0  0  0  0
    9.6912   32.8132   19.5489 H   0  0  0  0  0  0  0  0  0  0  0  0
   12.0253   32.0606   18.3621 H   0  0  0  0  0  0  0  0  0  0  0  0
   10.8103   30.8081   17.7578 H   0  0  0  0  0  0  0  0  0  0  0  0
   11.1465   33.6431   17.0551 H   0  0  0  0  0  0  0  0  0  0  0  0
   10.4375   32.1975   16.1529 H   0  0  0  0  0  0  0  0  0  0  0  0
    8.8800   33.4892   18.3551 H   0  0  0  0  0  0  0  0  0  0  0  0
    8.9595   34.2391   16.6898 H   0  0  0  0  0  0  0  0  0  0  0  0
    7.3404   32.0410   17.6320 H   0  0  0  0  0  0  0  0  0  0  0  0
    7.3499   32.9038   16.0329 H   0  0  0  0  0  0  0  0  0  0  0  0
    8.2839   31.1600   15.0271 H   0  0  0  0  0  0  0  0  0  0  0  0
    9.6250   31.1406   16.2581 H   0  0  0  0  0  0  0  0  0  0  0  0
  1  2  1  0
  2  3  1  0
  3  4  1  0
  4  5  1  0
  5  6  1  0
  6  7  1  0
  7  8  1  0
  8  9  1  0
  9 10  1  0
 10 11  1  0
 11 12  1  0
 12 13  1  0
 13 14  1  0
 14 15  1  0
 15 16  1  0
 16 17  1  0
 17 18  1  0
 18 19  2  0
 18 20  1  0
  1 21  1  0
  1 22  1  0
  1 23  1  0
  2 24  1  0
  2 25  1  0
  3 26  1  0
  3 27  1  0
  4 28  1  0
  4 29  1  0
  5 30  1  0
  5 31  1  0
  6 32  1  0
  6 33  1  0
  7 34  1  0
  7 35  1  0
  8 36  1  0
  8 37  1  0
  9 38  1  0
  9 39  1  0
 10 40  1  0
 10 41  1  0
 11 42  1  0
 11 43  1  0
 12 44  1  0
 12 45  1  0
 13 46  1  0
 13 47  1  0
 14 48  1  0
 14 49  1  0
 15 50  1  0
 15 51  1  0
 16 52  1  0
 16 53  1  0
 17 54  1  0
 17 55  1  0
M  CHG  1  20  -1
M  END
>  <meeko>  (15) 
{"is_sidechain": [false], "free_energy": -5.423, "intermolecular_energy": -11.413, "internal_energy": -1.596}

$$$$
stearate_Clobe_run03
     RDKit          3D

 55 54  0  0  0  0  0  0  0  0999 V2000
   13.4080   36.2770   28.3130 C   0  0  0  0  0  0  0  0  0  0  0  0
   12.1520   35.4600   28.0470 C   0  0  0  0  0  0  0  0  0  0  0  0
   12.2480   34.5830   26.7960 C   0  0  0  0  0  0  0  0  0  0  0  0
   10.9270   34.4730   26.0310 C   0  0  0  0  0  0  0  0  0  0  0  0
   10.4320   33.0260   25.9870 C   0  0  0  0  0  0  0  0  0  0  0  0
   10.5910   32.3700   24.6110 C   0  0  0  0  0  0  0  0  0  0  0  0
   12.0050   32.3920   24.0230 C   0  0  0  0  0  0  0  0  0  0  0  0
   12.1550   31.7830   22.6260 C   0  0  0  0  0  0  0  0  0  0  0  0
   10.8640   31.8070   21.8100 C   0  0  0  0  0  0  0  0  0  0  0  0
   11.0570   31.5390   20.3120 C   0  0  0  0  0  0  0  0  0  0  0  0
    9.7930   31.6910   19.4570 C   0  0  0  0  0  0  0  0  0  0  0  0
    8.5090   31.4000   20.2410 C   0  0  0  0  0  0  0  0  0  0  0  0
    7.3120   32.2400   19.7860 C   0  0  0  0  0  0  0  0  0  0  0  0
    5.9300   31.7150   20.1890 C   0  0  0  0  0  0  0  0  0  0  0  0
    5.1360   31.0090   19.0860 C   0  0  0  0  0  0  0  0  0  0  0  0
    5.7250   31.2010   17.6850 C   0  0  0  0  0  0  0  0  0  0  0  0
    6.0330   29.8710   17.0010 C   0  0  0  0  0  0  0  0  0  0  0  0
    7.4950   29.5210   17.0460 C   0  0  0  0  0  0  0  0  0  0  0  0
    8.0290   28.7640   17.8390 O   0  0  0  0  0  0  0  0  0  0  0  0
    8.2130   30.1200   16.0790 O   0  0  0  0  0  0  0  0  0  0  0  0
   13.5587   36.3750   29.3982 H   0  0  0  0  0  0  0  0  0  0  0  0
   14.2763   35.7704   27.8665 H   0  0  0  0  0  0  0  0  0  0  0  0
   13.2969   37.2762   27.8665 H   0  0  0  0  0  0  0  0  0  0  0  0
   11.9693   34.8096   28.9151 H   0  0  0  0  0  0  0  0  0  0  0  0
   11.3313   36.1731   27.8802 H   0  0  0  0  0  0  0  0  0  0  0  0
   13.0054   35.0140   26.1247 H   0  0  0  0  0  0  0  0  0  0  0  0
   12.5174   33.5696   27.1284 H   0  0  0  0  0  0  0  0  0  0  0  0
   10.1703   35.0961   26.5302 H   0  0  0  0  0  0  0  0  0  0  0  0
   11.0925   34.8161   24.9991 H   0  0  0  0  0  0  0  0  0  0  0  0
   11.0038   32.4394   26.7211 H   0  0  0  0  0  0  0  0  0  0  0  0
    9.3563   33.0436   26.2160 H   0  0  0  0  0  0  0  0  0  0  0  0
   10.2784   31.3191   24.6997 H   0  0  0  0  0  0  0  0  0  0  0  0
    9.9714   32.9638   23.9229 H   0  0  0  0  0  0  0  0  0  0  0  0
   12.3327   33.4408   23.9710 H   0  0  0  0  0  0  0  0  0  0  0  0
   12.6157   31.7652   24.6895 H   0  0  0  0  0  0  0  0  0  0  0  0
   12.9231   32.3499   22.0795 H   0  0  0  0  0  0  0  0  0  0  0  0
   12.4333   30.7274   22.7610 H   0  0  0  0  0  0  0  0  0  0  0  0
   10.1879   31.0385   22.2128 H   0  0  0  0  0  0  0  0  0  0  0  0
   10.4560   32.8248   21.8971 H   0  0  0  0  0  0  0  0  0  0  0  0
   11.8114   32.2446   19.9338 H   0  0  0  0  0  0  0  0  0  0  0  0
   11.3612   30.4854   20.2254 H   0  0  0  0  0  0  0  0  0  0  0  0
    9.7471   32.7224   19.0773 H   0  0  0  0  0  0  0  0  0  0  0  0
    9.8556   30.9582   18.6390 H   0  0  0  0  0  0  0  0  0  0  0  0
    8.2568   30.3369   20.1139 H   0  0  0  0  0  0  0  0  0  0  0  0
    8.7056   31.6593   21.2918 H   0  0  0  0  0  0  0  0  0  0  0  0
    7.4266   33.2475   20.2124 H   0  0  0  0  0  0  0  0  0  0  0  0
    7.3307   32.2112   18.6865 H   0  0  0  0  0  0  0  0  0  0  0  0
    6.0680   31.0014   21.0147 H   0  0  0  0  0  0  0  0  0  0  0  0
    5.3404   32.6037   20.4585 H   0  0  0  0  0  0  0  0  0  0  0  0
    5.1138   29.9321   19.3089 H   0  0  0  0  0  0  0  0  0  0  0  0
    4.1310   31.4561   19.0766 H   0  0  0  0  0  0  0  0  0  0  0  0
    5.0018   31.7565   17.0698 H   0  0  0  0  0  0  0  0  0  0  0  0
    6.6703   31.7538   17.7892 H   0  0  0  0  0  0  0  0  0  0  0  0
    5.4649   29.0757   17.5057 H   0  0  0  0  0  0  0  0  0  0  0  0
    5.7463   29.9667   15.9433 H   0  0  0  0  0  0  0  0  0  0  0  0
  1  2  1  0
  2  3  1  0
  3  4  1  0
  4  5  1  0
  5  6  1  0
  6  7  1  0
  7  8  1  0
  8  9  1  0
  9 10  1  0
 10 11  1  0
 11 12  1  0
 12 13  1  0
 13 14  1  0
 14 15  1  0
 15 16  1  0
 16 17  1  0
 17 18  1  0
 18 19  2  0
 18 20  1  0
  1 21  1  0
  1 22  1  0
  1 23  1  0
  2 24  1  0
  2 25  1  0
  3 26  1  0
  3 27  1  0
  4 28  1  0
  4 29  1  0
  5 30  1  0
  5 31  1  0
  6 32  1  0
  6 33  1  0
  7 34  1  0
  7 35  1  0
  8 36  1  0
  8 37  1  0
  9 38  1  0
  9 39  1  0
 10 40  1  0
 10 41  1  0
 11 42  1  0
 11 43  1  0
 12 44  1  0
 12 45  1  0
 13 46  1  0
 13 47  1  0
 14 48  1  0
 14 49  1  0
 15 50  1  0
 15 51  1  0
 16 52  1  0
 16 53  1  0
 17 54  1  0
 17 55  1  0
M  CHG  1  20  -1
M  END
>  <meeko>  (16) 
{"is_sidechain": [false], "free_energy": -5.41, "intermolecular_energy": -11.921, "internal_energy": -1.063}

$$$$
stearate_Clobe_run03
     RDKit          3D

 55 54  0  0  0  0  0  0  0  0999 V2000
    8.0630   29.0960   17.3690 C   0  0  0  0  0  0  0  0  0  0  0  0
    6.8250   29.6840   18.0300 C   0  0  0  0  0  0  0  0  0  0  0  0
    5.7300   30.0790   17.0370 C   0  0  0  0  0  0  0  0  0  0  0  0
    4.8350   31.2140   17.5410 C   0  0  0  0  0  0  0  0  0  0  0  0
    5.6680   32.3600   18.1200 C   0  0  0  0  0  0  0  0  0  0  0  0
    6.6030   33.0110   17.0950 C   0  0  0  0  0  0  0  0  0  0  0  0
    7.9950   33.3890   17.6120 C   0  0  0  0  0  0  0  0  0  0  0  0
    9.1530   32.5270   17.0990 C   0  0  0  0  0  0  0  0  0  0  0  0
   10.5000   32.8830   17.7260 C   0  0  0  0  0  0  0  0  0  0  0  0
   10.9200   31.9700   18.8840 C   0  0  0  0  0  0  0  0  0  0  0  0
    9.7800   31.5350   19.8150 C   0  0  0  0  0  0  0  0  0  0  0  0
   10.2020   31.4900   21.2870 C   0  0  0  0  0  0  0  0  0  0  0  0
   11.7220   31.4970   21.4860 C   0  0  0  0  0  0  0  0  0  0  0  0
   12.2110   31.7800   22.9100 C   0  0  0  0  0  0  0  0  0  0  0  0
   11.1750   32.3790   23.8660 C   0  0  0  0  0  0  0  0  0  0  0  0
   11.7690   32.8570   25.1940 C   0  0  0  0  0  0  0  0  0  0  0  0
   10.7140   32.9660   26.2930 C   0  0  0  0  0  0  0  0  0  0  0  0
   11.3130   32.9930   27.6720 C   0  0  0  0  0  0  0  0  0  0  0  0
   10.7130   33.2030   28.7120 O   0  0  0  0  0  0  0  0  0  0  0  0
   12.6320   32.7290   27.6810 O   0  0  0  0  0  0  0  0  0  0  0  0
    8.7683   28.7610   18.1438 H   0  0  0  0  0  0  0  0  0  0  0  0
    7.7725   28.2397   16.7427 H   0  0  0  0  0  0  0  0  0  0  0  0
    8.5432   29.8622   16.7427 H   0  0  0  0  0  0  0  0  0  0  0  0
    6.4125   28.9362   18.7233 H   0  0  0  0  0  0  0  0  0  0  0  0
    7.1401   30.6032   18.5454 H   0  0  0  0  0  0  0  0  0  0  0  0
    6.2081   30.4014   16.1003 H   0  0  0  0  0  0  0  0  0  0  0  0
    5.0878   29.1976   16.8932 H   0  0  0  0  0  0  0  0  0  0  0  0
    4.2332   31.5956   16.7030 H   0  0  0  0  0  0  0  0  0  0  0  0
    4.1858   30.8188   18.3362 H   0  0  0  0  0  0  0  0  0  0  0  0
    4.9826   33.1295   18.5048 H   0  0  0  0  0  0  0  0  0  0  0  0
    6.3010   31.9334   18.9121 H   0  0  0  0  0  0  0  0  0  0  0  0
    6.7323   32.3066   16.2601 H   0  0  0  0  0  0  0  0  0  0  0  0
    6.1219   33.9579   16.8090 H   0  0  0  0  0  0  0  0  0  0  0  0
    8.1931   34.4302   17.3178 H   0  0  0  0  0  0  0  0  0  0  0  0
    7.9632   33.2301   18.7000 H   0  0  0  0  0  0  0  0  0  0  0  0
    8.9305   31.4739   17.3258 H   0  0  0  0  0  0  0  0  0  0  0  0
    9.2399   32.7108   16.0179 H   0  0  0  0  0  0  0  0  0  0  0  0
   11.2706   32.8228   16.9433 H   0  0  0  0  0  0  0  0  0  0  0  0
   10.3937   33.8942   18.1458 H   0  0  0  0  0  0  0  0  0  0  0  0
   11.3754   31.0646   18.4565 H   0  0  0  0  0  0  0  0  0  0  0  0
   11.6138   32.5583   19.5025 H   0  0  0  0  0  0  0  0  0  0  0  0
    8.9483   32.2471   19.7092 H   0  0  0  0  0  0  0  0  0  0  0  0
    9.4838   30.5165   19.5235 H   0  0  0  0  0  0  0  0  0  0  0  0
    9.7796   32.3680   21.7976 H   0  0  0  0  0  0  0  0  0  0  0  0
    9.8247   30.5445   21.7038 H   0  0  0  0  0  0  0  0  0  0  0  0
   12.1050   30.5097   21.1885 H   0  0  0  0  0  0  0  0  0  0  0  0
   12.0979   32.3289   20.8723 H   0  0  0  0  0  0  0  0  0  0  0  0
   12.5588   30.8301   23.3420 H   0  0  0  0  0  0  0  0  0  0  0  0
   12.9982   32.5416   22.8087 H   0  0  0  0  0  0  0  0  0  0  0  0
   10.6990   33.2373   23.3692 H   0  0  0  0  0  0  0  0  0  0  0  0
   10.4563   31.5808   24.1033 H   0  0  0  0  0  0  0  0  0  0  0  0
   12.5413   32.1421   25.5142 H   0  0  0  0  0  0  0  0  0  0  0  0
   12.1927   33.8592   25.0327 H   0  0  0  0  0  0  0  0  0  0  0  0
   10.1410   33.8924   26.1401 H   0  0  0  0  0  0  0  0  0  0  0  0
   10.0722   32.0750   26.2270 H   0  0  0  0  0  0  0  0  0  0  0  0
  1  2  1  0
  2  3  1  0
  3  4  1  0
  4  5  1  0
  5  6  1  0
  6  7  1  0
  7  8  1  0
  8  9  1  0
  9 10  1  0
 10 11  1  0
 11 12  1  0
 12 13  1  0
 13 14  1  0
 14 15  1  0
 15 16  1  0
 16 17  1  0
 17 18  1  0
 18 19  2  0
 18 20  1  0
  1 21  1  0
  1 22  1  0
  1 23  1  0
  2 24  1  0
  2 25  1  0
  3 26  1  0
  3 27  1  0
  4 28  1  0
  4 29  1  0
  5 30  1  0
  5 31  1  0
  6 32  1  0
  6 33  1  0
  7 34  1  0
  7 35  1  0
  8 36  1  0
  8 37  1  0
  9 38  1  0
  9 39  1  0
 10 40  1  0
 10 41  1  0
 11 42  1  0
 11 43  1  0
 12 44  1  0
 12 45  1  0
 13 46  1  0
 13 47  1  0
 14 48  1  0
 14 49  1  0
 15 50  1  0
 15 51  1  0
 16 52  1  0
 16 53  1  0
 17 54  1  0
 17 55  1  0
M  CHG  1  20  -1
M  END
>  <meeko>  (17) 
{"is_sidechain": [false], "free_energy": -5.374, "intermolecular_energy": -11.663, "internal_energy": -1.252}

$$$$
stearate_Clobe_run03
     RDKit          3D

 55 54  0  0  0  0  0  0  0  0999 V2000
    9.8650   36.2950   30.3040 C   0  0  0  0  0  0  0  0  0  0  0  0
   10.4990   35.0090   30.8130 C   0  0  0  0  0  0  0  0  0  0  0  0
   11.9570   35.1770   31.2470 C   0  0  0  0  0  0  0  0  0  0  0  0
   12.8670   34.0440   30.7650 C   0  0  0  0  0  0  0  0  0  0  0  0
   13.9830   34.5760   29.8640 C   0  0  0  0  0  0  0  0  0  0  0  0
   13.7560   36.0200   29.4030 C   0  0  0  0  0  0  0  0  0  0  0  0
   13.3040   36.1910   27.9490 C   0  0  0  0  0  0  0  0  0  0  0  0
   12.8510   34.9120   27.2380 C   0  0  0  0  0  0  0  0  0  0  0  0
   11.3450   34.6740   27.3170 C   0  0  0  0  0  0  0  0  0  0  0  0
   10.9460   33.2070   27.5190 C   0  0  0  0  0  0  0  0  0  0  0  0
   10.1380   32.5880   26.3720 C   0  0  0  0  0  0  0  0  0  0  0  0
   10.3880   33.2830   25.0300 C   0  0  0  0  0  0  0  0  0  0  0  0
   10.3370   32.3300   23.8300 C   0  0  0  0  0  0  0  0  0  0  0  0
   11.6750   32.0470   23.1400 C   0  0  0  0  0  0  0  0  0  0  0  0
   11.5870   31.4310   21.7400 C   0  0  0  0  0  0  0  0  0  0  0  0
   10.2570   31.7040   21.0310 C   0  0  0  0  0  0  0  0  0  0  0  0
   10.4240   31.8340   19.5190 C   0  0  0  0  0  0  0  0  0  0  0  0
    9.3520   31.1110   18.7520 C   0  0  0  0  0  0  0  0  0  0  0  0
    9.3860   30.8230   17.5670 O   0  0  0  0  0  0  0  0  0  0  0  0
    8.3000   30.7610   19.5140 O   0  0  0  0  0  0  0  0  0  0  0  0
    9.5588   36.9161   31.1587 H   0  0  0  0  0  0  0  0  0  0  0  0
   10.5945   36.8465   29.6927 H   0  0  0  0  0  0  0  0  0  0  0  0
    8.9833   36.0522   29.6927 H   0  0  0  0  0  0  0  0  0  0  0  0
    9.9178   34.6522   31.6761 H   0  0  0  0  0  0  0  0  0  0  0  0
   10.4904   34.2920   29.9789 H   0  0  0  0  0  0  0  0  0  0  0  0
   12.3354   36.1260   30.8394 H   0  0  0  0  0  0  0  0  0  0  0  0
   11.9732   35.1623   32.3468 H   0  0  0  0  0  0  0  0  0  0  0  0
   13.3164   33.5486   31.6383 H   0  0  0  0  0  0  0  0  0  0  0  0
   12.2604   33.3328   30.1851 H   0  0  0  0  0  0  0  0  0  0  0  0
   14.9310   34.5324   30.4202 H   0  0  0  0  0  0  0  0  0  0  0  0
   14.0009   33.9460   28.9624 H   0  0  0  0  0  0  0  0  0  0  0  0
   12.9858   36.4642   30.0506 H   0  0  0  0  0  0  0  0  0  0  0  0
   14.7365   36.5139   29.4718 H   0  0  0  0  0  0  0  0  0  0  0  0
   12.4627   36.8996   27.9380 H   0  0  0  0  0  0  0  0  0  0  0  0
   14.1902   36.5411   27.3994 H   0  0  0  0  0  0  0  0  0  0  0  0
   13.1376   34.9822   26.1783 H   0  0  0  0  0  0  0  0  0  0  0  0
   13.3398   34.0679   27.7465 H   0  0  0  0  0  0  0  0  0  0  0  0
   10.9480   35.2579   28.1605 H   0  0  0  0  0  0  0  0  0  0  0  0
   10.9267   34.9829   26.3476 H   0  0  0  0  0  0  0  0  0  0  0  0
   11.8664   32.6178   27.6440 H   0  0  0  0  0  0  0  0  0  0  0  0
   10.2894   33.1872   28.4013 H   0  0  0  0  0  0  0  0  0  0  0  0
   10.4172   31.5283   26.2768 H   0  0  0  0  0  0  0  0  0  0  0  0
    9.0718   32.7078   26.6145 H   0  0  0  0  0  0  0  0  0  0  0  0
    9.6209   34.0591   24.8914 H   0  0  0  0  0  0  0  0  0  0  0  0
   11.4039   33.7032   25.0671 H   0  0  0  0  0  0  0  0  0  0  0  0
    9.9290   31.3702   24.1796 H   0  0  0  0  0  0  0  0  0  0  0  0
    9.7156   32.8354   23.0761 H   0  0  0  0  0  0  0  0  0  0  0  0
   12.2193   32.9992   23.0560 H   0  0  0  0  0  0  0  0  0  0  0  0
   12.1802   31.2960   23.7652 H   0  0  0  0  0  0  0  0  0  0  0  0
   12.3998   31.8462   21.1260 H   0  0  0  0  0  0  0  0  0  0  0  0
   11.6690   30.3409   21.8621 H   0  0  0  0  0  0  0  0  0  0  0  0
    9.5670   30.8734   21.2408 H   0  0  0  0  0  0  0  0  0  0  0  0
    9.8627   32.6584   21.4099 H   0  0  0  0  0  0  0  0  0  0  0  0
   10.3894   32.9005   19.2516 H   0  0  0  0  0  0  0  0  0  0  0  0
   11.3886   31.3782   19.2511 H   0  0  0  0  0  0  0  0  0  0  0  0
  1  2  1  0
  2  3  1  0
  3  4  1  0
  4  5  1  0
  5  6  1  0
  6  7  1  0
  7  8  1  0
  8  9  1  0
  9 10  1  0
 10 11  1  0
 11 12  1  0
 12 13  1  0
 13 14  1  0
 14 15  1  0
 15 16  1  0
 16 17  1  0
 17 18  1  0
 18 19  2  0
 18 20  1  0
  1 21  1  0
  1 22  1  0
  1 23  1  0
  2 24  1  0
  2 25  1  0
  3 26  1  0
  3 27  1  0
  4 28  1  0
  4 29  1  0
  5 30  1  0
  5 31  1  0
  6 32  1  0
  6 33  1  0
  7 34  1  0
  7 35  1  0
  8 36  1  0
  8 37  1  0
  9 38  1  0
  9 39  1  0
 10 40  1  0
 10 41  1  0
 11 42  1  0
 11 43  1  0
 12 44  1  0
 12 45  1  0
 13 46  1  0
 13 47  1  0
 14 48  1  0
 14 49  1  0
 15 50  1  0
 15 51  1  0
 16 52  1  0
 16 53  1  0
 17 54  1  0
 17 55  1  0
M  CHG  1  20  -1
M  END
>  <meeko>  (18) 
{"is_sidechain": [false], "free_energy": -5.36, "intermolecular_energy": -11.222, "internal_energy": -1.666}

$$$$
stearate_Clobe_run03
     RDKit          3D

 55 54  0  0  0  0  0  0  0  0999 V2000
   13.6490   33.3310   29.5230 C   0  0  0  0  0  0  0  0  0  0  0  0
   12.3210   34.0740   29.4990 C   0  0  0  0  0  0  0  0  0  0  0  0
   12.3680   35.3850   28.7120 C   0  0  0  0  0  0  0  0  0  0  0  0
   12.1440   35.1970   27.2090 C   0  0  0  0  0  0  0  0  0  0  0  0
   10.7980   34.5220   26.9310 C   0  0  0  0  0  0  0  0  0  0  0  0
   10.8560   33.4980   25.7930 C   0  0  0  0  0  0  0  0  0  0  0  0
   12.2490   32.9600   25.4520 C   0  0  0  0  0  0  0  0  0  0  0  0
   12.3650   32.2040   24.1240 C   0  0  0  0  0  0  0  0  0  0  0  0
   11.0790   32.2210   23.3010 C   0  0  0  0  0  0  0  0  0  0  0  0
   11.1670   31.4570   21.9740 C   0  0  0  0  0  0  0  0  0  0  0  0
    9.8940   31.4920   21.1180 C   0  0  0  0  0  0  0  0  0  0  0  0
   10.1820   31.7750   19.6400 C   0  0  0  0  0  0  0  0  0  0  0  0
    8.9460   31.6500   18.7430 C   0  0  0  0  0  0  0  0  0  0  0  0
    9.0060   30.5640   17.6640 C   0  0  0  0  0  0  0  0  0  0  0  0
    7.8470   30.5510   16.6630 C   0  0  0  0  0  0  0  0  0  0  0  0
    6.7470   29.5440   17.0100 C   0  0  0  0  0  0  0  0  0  0  0  0
    5.3820   30.2100   17.1670 C   0  0  0  0  0  0  0  0  0  0  0  0
    5.2850   31.0450   18.4150 C   0  0  0  0  0  0  0  0  0  0  0  0
    5.2410   32.2620   18.4630 O   0  0  0  0  0  0  0  0  0  0  0  0
    5.2210   30.3100   19.5400 O   0  0  0  0  0  0  0  0  0  0  0  0
   13.9547   33.1600   30.5657 H   0  0  0  0  0  0  0  0  0  0  0  0
   13.5376   32.3642   29.0103 H   0  0  0  0  0  0  0  0  0  0  0  0
   14.4146   33.9318   29.0103 H   0  0  0  0  0  0  0  0  0  0  0  0
   11.5646   33.4200   29.0407 H   0  0  0  0  0  0  0  0  0  0  0  0
   12.0757   34.3308   30.5401 H   0  0  0  0  0  0  0  0  0  0  0  0
   11.5860   36.0539   29.1007 H   0  0  0  0  0  0  0  0  0  0  0  0
   13.3757   35.8068   28.8412 H   0  0  0  0  0  0  0  0  0  0  0  0
   12.1604   36.1811   26.7177 H   0  0  0  0  0  0  0  0  0  0  0  0
   12.9447   34.5539   26.8148 H   0  0  0  0  0  0  0  0  0  0  0  0
   10.4697   34.0081   27.8465 H   0  0  0  0  0  0  0  0  0  0  0  0
   10.0958   35.3109   26.6233 H   0  0  0  0  0  0  0  0  0  0  0  0
   10.2237   32.6433   26.0753 H   0  0  0  0  0  0  0  0  0  0  0  0
   10.5125   34.0303   24.8938 H   0  0  0  0  0  0  0  0  0  0  0  0
   12.9412   33.8142   25.4157 H   0  0  0  0  0  0  0  0  0  0  0  0
   12.4858   32.2254   26.2358 H   0  0  0  0  0  0  0  0  0  0  0  0
   13.1660   32.6665   23.5285 H   0  0  0  0  0  0  0  0  0  0  0  0
   12.5807   31.1531   24.3669 H   0  0  0  0  0  0  0  0  0  0  0  0
   10.2777   31.7704   23.9051 H   0  0  0  0  0  0  0  0  0  0  0  0
   10.8830   33.2729   23.0457 H   0  0  0  0  0  0  0  0  0  0  0  0
   11.9868   31.8923   21.3837 H   0  0  0  0  0  0  0  0  0  0  0  0
   11.3302   30.4017   22.2380 H   0  0  0  0  0  0  0  0  0  0  0  0
    9.3895   30.5178   21.1978 H   0  0  0  0  0  0  0  0  0  0  0  0
    9.2625   32.3097   21.4956 H   0  0  0  0  0  0  0  0  0  0  0  0
   10.5748   32.7987   19.5513 H   0  0  0  0  0  0  0  0  0  0  0  0
   10.9065   31.0201   19.3006 H   0  0  0  0  0  0  0  0  0  0  0  0
    8.0818   31.4353   19.3888 H   0  0  0  0  0  0  0  0  0  0  0  0
    8.8762   32.6040   18.1999 H   0  0  0  0  0  0  0  0  0  0  0  0
    9.9388   30.7026   17.0978 H   0  0  0  0  0  0  0  0  0  0  0  0
    8.9456   29.6063   18.2018 H   0  0  0  0  0  0  0  0  0  0  0  0
    7.4014   31.5563   16.6342 H   0  0  0  0  0  0  0  0  0  0  0  0
    8.2644   30.2497   15.6909 H   0  0  0  0  0  0  0  0  0  0  0  0
    6.6855   28.7959   16.2059 H   0  0  0  0  0  0  0  0  0  0  0  0
    7.0075   29.0784   17.9719 H   0  0  0  0  0  0  0  0  0  0  0  0
    5.2035   30.8571   16.2956 H   0  0  0  0  0  0  0  0  0  0  0  0
    4.6287   29.4118   17.2411 H   0  0  0  0  0  0  0  0  0  0  0  0
  1  2  1  0
  2  3  1  0
  3  4  1  0
  4  5  1  0
  5  6  1  0
  6  7  1  0
  7  8  1  0
  8  9  1  0
  9 10  1  0
 10 11  1  0
 11 12  1  0
 12 13  1  0
 13 14  1  0
 14 15  1  0
 15 16  1  0
 16 17  1  0
 17 18  1  0
 18 19  2  0
 18 20  1  0
  1 21  1  0
  1 22  1  0
  1 23  1  0
  2 24  1  0
  2 25  1  0
  3 26  1  0
  3 27  1  0
  4 28  1  0
  4 29  1  0
  5 30  1  0
  5 31  1  0
  6 32  1  0
  6 33  1  0
  7 34  1  0
  7 35  1  0
  8 36  1  0
  8 37  1  0
  9 38  1  0
  9 39  1  0
 10 40  1  0
 10 41  1  0
 11 42  1  0
 11 43  1  0
 12 44  1  0
 12 45  1  0
 13 46  1  0
 13 47  1  0
 14 48  1  0
 14 49  1  0
 15 50  1  0
 15 51  1  0
 16 52  1  0
 16 53  1  0
 17 54  1  0
 17 55  1  0
M  CHG  1  20  -1
M  END
>  <meeko>  (19) 
{"is_sidechain": [false], "free_energy": -5.335, "intermolecular_energy": -11.86, "internal_energy": -0.978}

$$$$
stearate_Clobe_run03
     RDKit          3D

 55 54  0  0  0  0  0  0  0  0999 V2000
    9.1550   33.5040   17.3340 C   0  0  0  0  0  0  0  0  0  0  0  0
    8.2060   32.6330   16.5240 C   0  0  0  0  0  0  0  0  0  0  0  0
    8.6070   31.1560   16.4920 C   0  0  0  0  0  0  0  0  0  0  0  0
    7.4260   30.2030   16.6920 C   0  0  0  0  0  0  0  0  0  0  0  0
    6.2710   30.8980   17.4170 C   0  0  0  0  0  0  0  0  0  0  0  0
    6.2050   30.5680   18.9120 C   0  0  0  0  0  0  0  0  0  0  0  0
    6.1360   31.7720   19.8570 C   0  0  0  0  0  0  0  0  0  0  0  0
    7.4450   32.1430   20.5590 C   0  0  0  0  0  0  0  0  0  0  0  0
    8.6210   31.2510   20.1650 C   0  0  0  0  0  0  0  0  0  0  0  0
    9.9940   31.7930   20.5830 C   0  0  0  0  0  0  0  0  0  0  0  0
   10.1160   32.1870   22.0600 C   0  0  0  0  0  0  0  0  0  0  0  0
   11.4480   31.7550   22.6800 C   0  0  0  0  0  0  0  0  0  0  0  0
   11.7060   32.3670   24.0610 C   0  0  0  0  0  0  0  0  0  0  0  0
   10.4640   32.6410   24.9160 C   0  0  0  0  0  0  0  0  0  0  0  0
   10.7200   33.3100   26.2710 C   0  0  0  0  0  0  0  0  0  0  0  0
   11.8630   34.3280   26.2470 C   0  0  0  0  0  0  0  0  0  0  0  0
   12.1870   34.8650   27.6400 C   0  0  0  0  0  0  0  0  0  0  0  0
   12.3480   33.7720   28.6600 C   0  0  0  0  0  0  0  0  0  0  0  0
   13.2200   32.9210   28.6700 O   0  0  0  0  0  0  0  0  0  0  0  0
   11.4200   33.8150   29.6330 O   0  0  0  0  0  0  0  0  0  0  0  0
    8.9769   33.3406   18.4071 H   0  0  0  0  0  0  0  0  0  0  0  0
   10.1944   33.2388   17.0902 H   0  0  0  0  0  0  0  0  0  0  0  0
    8.9797   34.5622   17.0902 H   0  0  0  0  0  0  0  0  0  0  0  0
    7.2009   32.7111   16.9641 H   0  0  0  0  0  0  0  0  0  0  0  0
    8.2379   32.9987   15.4870 H   0  0  0  0  0  0  0  0  0  0  0  0
    9.0681   30.9406   15.5168 H   0  0  0  0  0  0  0  0  0  0  0  0
    9.3044   30.9898   17.3263 H   0  0  0  0  0  0  0  0  0  0  0  0
    7.0753   29.8550   15.7092 H   0  0  0  0  0  0  0  0  0  0  0  0
    7.7628   29.3548   17.3061 H   0  0  0  0  0  0  0  0  0  0  0  0
    6.3928   31.9855   17.3049 H   0  0  0  0  0  0  0  0  0  0  0  0
    5.3371   30.5355   16.9627 H   0  0  0  0  0  0  0  0  0  0  0  0
    5.3092   29.9528   19.0828 H   0  0  0  0  0  0  0  0  0  0  0  0
    7.1499   30.0564   19.1476 H   0  0  0  0  0  0  0  0  0  0  0  0
    5.8087   32.6432   19.2706 H   0  0  0  0  0  0  0  0  0  0  0  0
    5.4385   31.4843   20.6574 H   0  0  0  0  0  0  0  0  0  0  0  0
    7.6953   33.1829   20.3023 H   0  0  0  0  0  0  0  0  0  0  0  0
    7.2832   32.0075   21.6386 H   0  0  0  0  0  0  0  0  0  0  0  0
    8.4807   30.2677   20.6376 H   0  0  0  0  0  0  0  0  0  0  0  0
    8.6238   31.2015   19.0661 H   0  0  0  0  0  0  0  0  0  0  0  0
   10.7447   31.0165   20.3744 H   0  0  0  0  0  0  0  0  0  0  0  0
   10.1471   32.7169   20.0060 H   0  0  0  0  0  0  0  0  0  0  0  0
   10.0288   33.2806   22.1406 H   0  0  0  0  0  0  0  0  0  0  0  0
    9.3127   31.6727   22.6080 H   0  0  0  0  0  0  0  0  0  0  0  0
   11.4469   30.6595   22.7793 H   0  0  0  0  0  0  0  0  0  0  0  0
   12.2465   32.1125   22.0132 H   0  0  0  0  0  0  0  0  0  0  0  0
   12.3538   31.6757   24.6200 H   0  0  0  0  0  0  0  0  0  0  0  0
   12.1580   33.3514   23.8698 H   0  0  0  0  0  0  0  0  0  0  0  0
    9.7943   33.2949   24.3382 H   0  0  0  0  0  0  0  0  0  0  0  0
   10.0370   31.6539   25.1467 H   0  0  0  0  0  0  0  0  0  0  0  0
    9.8005   33.8272   26.5825 H   0  0  0  0  0  0  0  0  0  0  0  0
   11.0117   32.5148   26.9728 H   0  0  0  0  0  0  0  0  0  0  0  0
   12.7609   33.8428   25.8367 H   0  0  0  0  0  0  0  0  0  0  0  0
   11.5461   35.1768   25.6232 H   0  0  0  0  0  0  0  0  0  0  0  0
   13.1245   35.4379   27.5871 H   0  0  0  0  0  0  0  0  0  0  0  0
   11.3430   35.4947   27.9580 H   0  0  0  0  0  0  0  0  0  0  0  0
  1  2  1  0
  2  3  1  0
  3  4  1  0
  4  5  1  0
  5  6  1  0
  6  7  1  0
  7  8  1  0
  8  9  1  0
  9 10  1  0
 10 11  1  0
 11 12  1  0
 12 13  1  0
 13 14  1  0
 14 15  1  0
 15 16  1  0
 16 17  1  0
 17 18  1  0
 18 19  2  0
 18 20  1  0
  1 21  1  0
  1 22  1  0
  1 23  1  0
  2 24  1  0
  2 25  1  0
  3 26  1  0
  3 27  1  0
  4 28  1  0
  4 29  1  0
  5 30  1  0
  5 31  1  0
  6 32  1  0
  6 33  1  0
  7 34  1  0
  7 35  1  0
  8 36  1  0
  8 37  1  0
  9 38  1  0
  9 39  1  0
 10 40  1  0
 10 41  1  0
 11 42  1  0
 11 43  1  0
 12 44  1  0
 12 45  1  0
 13 46  1  0
 13 47  1  0
 14 48  1  0
 14 49  1  0
 15 50  1  0
 15 51  1  0
 16 52  1  0
 16 53  1  0
 17 54  1  0
 17 55  1  0
M  CHG  1  20  -1
M  END
>  <meeko>  (20) 
{"is_sidechain": [false], "free_energy": -5.278, "intermolecular_energy": -11.161, "internal_energy": -1.567}

$$$$
