linoleate_Nlobe_run03
     RDKit          3D

 51 50  0  0  0  0  0  0  0  0999 V2000
  -31.8150   24.6620    8.7360 C   0  0  0  0  0  0  0  0  0  0  0  0
  -32.2410   24.9740    7.3100 C   0  0  0  0  0  0  0  0  0  0  0  0
  -33.2910   24.0060    6.7600 C   0  0  0  0  0  0  0  0  0  0  0  0
  -34.7300   24.4570    7.0240 C   0  0  0  0  0  0  0  0  0  0  0  0
  -35.5310   23.3610    7.7380 C   0  0  0  0  0  0  0  0  0  0  0  0
  -35.0120   22.9040    9.0740 C   0  0  0  0  0  0  0  0  0  0  0  0
  -34.4500   21.7210    9.3680 C   0  0  0  0  0  0  0  0  0  0  0  0
  -34.2460   20.6260    8.3600 C   0  0  0  0  0  0  0  0  0  0  0  0
  -32.8400   20.6130    7.8370 C   0  0  0  0  0  0  0  0  0  0  0  0
  -32.5090   20.2140    6.6000 C   0  0  0  0  0  0  0  0  0  0  0  0
  -33.5060   19.7320    5.5840 C   0  0  0  0  0  0  0  0  0  0  0  0
  -33.9520   20.8290    4.6110 C   0  0  0  0  0  0  0  0  0  0  0  0
  -35.3880   21.3060    4.8510 C   0  0  0  0  0  0  0  0  0  0  0  0
  -36.4460   20.3550    4.2820 C   0  0  0  0  0  0  0  0  0  0  0  0
  -37.8190   20.5110    4.9400 C   0  0  0  0  0  0  0  0  0  0  0  0
  -37.7230   20.3540    6.4630 C   0  0  0  0  0  0  0  0  0  0  0  0
  -38.4110   21.4950    7.2110 C   0  0  0  0  0  0  0  0  0  0  0  0
  -39.8920   21.2720    7.4010 C   0  0  0  0  0  0  0  0  0  0  0  0
  -40.4290   20.2160    7.7010 O   0  0  0  0  0  0  0  0  0  0  0  0
  -40.5670   22.4360    7.2190 O   0  0  0  0  0  0  0  0  0  0  0  0
  -32.4969   25.1614    9.4400 H   0  0  0  0  0  0  0  0  0  0  0  0
  -31.8507   23.5748    8.8998 H   0  0  0  0  0  0  0  0  0  0  0  0
  -30.7893   25.0240    8.8998 H   0  0  0  0  0  0  0  0  0  0  0  0
  -32.6591   25.9912    7.2864 H   0  0  0  0  0  0  0  0  0  0  0  0
  -31.3471   24.8751    6.6767 H   0  0  0  0  0  0  0  0  0  0  0  0
  -33.1474   23.9163    5.6731 H   0  0  0  0  0  0  0  0  0  0  0  0
  -33.1510   23.0458    7.2781 H   0  0  0  0  0  0  0  0  0  0  0  0
  -34.7139   25.3584    7.6543 H   0  0  0  0  0  0  0  0  0  0  0  0
  -35.2121   24.6686    6.0582 H   0  0  0  0  0  0  0  0  0  0  0  0
  -36.5524   23.7403    7.8896 H   0  0  0  0  0  0  0  0  0  0  0  0
  -35.4595   22.4794    7.0841 H   0  0  0  0  0  0  0  0  0  0  0  0
  -35.1034   23.6203    9.9038 H   0  0  0  0  0  0  0  0  0  0  0  0
  -34.1212   21.5438   10.4026 H   0  0  0  0  0  0  0  0  0  0  0  0
  -34.4587   19.6577    8.8366 H   0  0  0  0  0  0  0  0  0  0  0  0
  -34.9264   20.8051    7.5144 H   0  0  0  0  0  0  0  0  0  0  0  0
  -32.0346   20.9499    8.5062 H   0  0  0  0  0  0  0  0  0  0  0  0
  -31.4475   20.2411    6.3128 H   0  0  0  0  0  0  0  0  0  0  0  0
  -33.0492   18.9156    5.0054 H   0  0  0  0  0  0  0  0  0  0  0  0
  -34.3987   19.3985    6.1334 H   0  0  0  0  0  0  0  0  0  0  0  0
  -33.2755   21.6893    4.7212 H   0  0  0  0  0  0  0  0  0  0  0  0
  -33.9165   20.4002    3.5987 H   0  0  0  0  0  0  0  0  0  0  0  0
  -35.5486   21.3982    5.9353 H   0  0  0  0  0  0  0  0  0  0  0  0
  -35.5024   22.2688    4.3314 H   0  0  0  0  0  0  0  0  0  0  0  0
  -36.5506   20.5537    3.2052 H   0  0  0  0  0  0  0  0  0  0  0  0
  -36.1034   19.3294    4.4837 H   0  0  0  0  0  0  0  0  0  0  0  0
  -38.2180   21.5091    4.7062 H   0  0  0  0  0  0  0  0  0  0  0  0
  -38.4845   19.7271    4.5494 H   0  0  0  0  0  0  0  0  0  0  0  0
  -38.1991   19.4051    6.7510 H   0  0  0  0  0  0  0  0  0  0  0  0
  -36.6573   20.3693    6.7351 H   0  0  0  0  0  0  0  0  0  0  0  0
  -37.9427   21.5969    8.2011 H   0  0  0  0  0  0  0  0  0  0  0  0
  -38.2920   22.4039    6.6030 H   0  0  0  0  0  0  0  0  0  0  0  0
  1  2  1  0
  2  3  1  0
  3  4  1  0
  4  5  1  0
  5  6  1  0
  6  7  2  0
  7  8  1  0
  8  9  1  0
  9 10  2  0
 10 11  1  0
 11 12  1  0
 12 13  1  0
 13 14  1  0
 14 15  1  0
 15 16  1  0
 16 17  1  0
 17 18  1  0
 18 19  2  0
 18 20  1  0
  1 21  1  0
  1 22  1  0
  1 23  1  0
  2 24  1  0
  2 25  1  0
  3 26  1  0
  3 27  1  0
  4 28  1  0
  4 29  1  0
  5 30  1  0
  5 31  1  0
  6 32  1  0
  7 33  1  0
  8 34  1  0
  8 35  1  0
  9 36  1  0
 10 37  1  0
 11 38  1  0
 11 39  1  0
 12 40  1  0
 12 41  1  0
 13 42  1  0
 13 43  1  0
 14 44  1  0
 14 45  1  0
 15 46  1  0
 15 47  1  0
 16 48  1  0
 16 49  1  0
 17 50  1  0
 17 51  1  0
M  CHG  1  20  -1
M  END
>  <meeko>  (1) 
{"is_sidechain": [false], "free_energy": -6.473, "intermolecular_energy": -11.771, "internal_energy": -2.676}

$$$$
linoleate_Nlobe_run03
     RDKit          3D

 51 50  0  0  0  0  0  0  0  0999 V2000
  -34.2830   19.4940   11.0070 C   0  0  0  0  0  0  0  0  0  0  0  0
  -34.2750   20.6320    9.9980 C   0  0  0  0  0  0  0  0  0  0  0  0
  -34.5480   22.0030   10.6200 C   0  0  0  0  0  0  0  0  0  0  0  0
  -33.3500   22.9540   10.5420 C   0  0  0  0  0  0  0  0  0  0  0  0
  -32.7320   22.9510    9.1390 C   0  0  0  0  0  0  0  0  0  0  0  0
  -32.6260   24.2810    8.4420 C   0  0  0  0  0  0  0  0  0  0  0  0
  -33.3720   24.7260    7.4180 C   0  0  0  0  0  0  0  0  0  0  0  0
  -34.4730   23.9240    6.7840 C   0  0  0  0  0  0  0  0  0  0  0  0
  -35.7430   24.0100    7.5780 C   0  0  0  0  0  0  0  0  0  0  0  0
  -36.5700   22.9720    7.7750 C   0  0  0  0  0  0  0  0  0  0  0  0
  -36.3260   21.5950    7.2250 C   0  0  0  0  0  0  0  0  0  0  0  0
  -36.9410   21.3840    5.8370 C   0  0  0  0  0  0  0  0  0  0  0  0
  -35.8940   21.2100    4.7310 C   0  0  0  0  0  0  0  0  0  0  0  0
  -34.7010   20.3460    5.1560 C   0  0  0  0  0  0  0  0  0  0  0  0
  -33.3470   20.9800    4.8290 C   0  0  0  0  0  0  0  0  0  0  0  0
  -32.4110   20.9430    6.0440 C   0  0  0  0  0  0  0  0  0  0  0  0
  -32.6530   19.7210    6.9290 C   0  0  0  0  0  0  0  0  0  0  0  0
  -31.8390   18.5190    6.5150 C   0  0  0  0  0  0  0  0  0  0  0  0
  -31.8090   18.0190    5.4010 O   0  0  0  0  0  0  0  0  0  0  0  0
  -31.1010   18.0710    7.5630 O   0  0  0  0  0  0  0  0  0  0  0  0
  -34.2801   19.9077   12.0263 H   0  0  0  0  0  0  0  0  0  0  0  0
  -35.1855   18.8820   10.8623 H   0  0  0  0  0  0  0  0  0  0  0  0
  -33.3892   18.8693   10.8623 H   0  0  0  0  0  0  0  0  0  0  0  0
  -33.2880   20.6602    9.5132 H   0  0  0  0  0  0  0  0  0  0  0  0
  -35.0867   20.4347    9.2823 H   0  0  0  0  0  0  0  0  0  0  0  0
  -35.3947   22.4641   10.0904 H   0  0  0  0  0  0  0  0  0  0  0  0
  -34.7648   21.8394   11.6860 H   0  0  0  0  0  0  0  0  0  0  0  0
  -33.6844   23.9734   10.7849 H   0  0  0  0  0  0  0  0  0  0  0  0
  -32.5882   22.6151   11.2595 H   0  0  0  0  0  0  0  0  0  0  0  0
  -31.7162   22.5375    9.2236 H   0  0  0  0  0  0  0  0  0  0  0  0
  -33.4214   22.3563    8.5217 H   0  0  0  0  0  0  0  0  0  0  0  0
  -31.8495   24.9659    8.8136 H   0  0  0  0  0  0  0  0  0  0  0  0
  -33.1660   25.7314    7.0222 H   0  0  0  0  0  0  0  0  0  0  0  0
  -34.6582   24.3097    5.7706 H   0  0  0  0  0  0  0  0  0  0  0  0
  -34.1575   22.8707    6.7505 H   0  0  0  0  0  0  0  0  0  0  0  0
  -36.0114   24.9791    8.0240 H   0  0  0  0  0  0  0  0  0  0  0  0
  -37.4781   23.1384    8.3730 H   0  0  0  0  0  0  0  0  0  0  0  0
  -35.2402   21.4334    7.1550 H   0  0  0  0  0  0  0  0  0  0  0  0
  -36.8059   20.8791    7.9085 H   0  0  0  0  0  0  0  0  0  0  0  0
  -37.5704   20.4823    5.8672 H   0  0  0  0  0  0  0  0  0  0  0  0
  -37.5221   22.2866    5.5970 H   0  0  0  0  0  0  0  0  0  0  0  0
  -36.3773   20.7358    3.8641 H   0  0  0  0  0  0  0  0  0  0  0  0
  -35.5033   22.2101    4.4919 H   0  0  0  0  0  0  0  0  0  0  0  0
  -34.7571   20.1836    6.2425 H   0  0  0  0  0  0  0  0  0  0  0  0
  -34.7641   19.4037    4.5920 H   0  0  0  0  0  0  0  0  0  0  0  0
  -32.8818   20.4260    4.0003 H   0  0  0  0  0  0  0  0  0  0  0  0
  -33.5123   22.0305    4.5477 H   0  0  0  0  0  0  0  0  0  0  0  0
  -31.3705   20.9207    5.6878 H   0  0  0  0  0  0  0  0  0  0  0  0
  -32.6109   21.8398    6.6487 H   0  0  0  0  0  0  0  0  0  0  0  0
  -32.3904   19.9816    7.9649 H   0  0  0  0  0  0  0  0  0  0  0  0
  -33.7140   19.4487    6.8289 H   0  0  0  0  0  0  0  0  0  0  0  0
  1  2  1  0
  2  3  1  0
  3  4  1  0
  4  5  1  0
  5  6  1  0
  6  7  2  0
  7  8  1  0
  8  9  1  0
  9 10  2  0
 10 11  1  0
 11 12  1  0
 12 13  1  0
 13 14  1  0
 14 15  1  0
 15 16  1  0
 16 17  1  0
 17 18  1  0
 18 19  2  0
 18 20  1  0
  1 21  1  0
  1 22  1  0
  1 23  1  0
  2 24  1  0
  2 25  1  0
  3 26  1  0
  3 27  1  0
  4 28  1  0
  4 29  1  0
  5 30  1  0
  5 31  1  0
  6 32  1  0
  7 33  1  0
  8 34  1  0
  8 35  1  0
  9 36  1  0
 10 37  1  0
 11 38  1  0
 11 39  1  0
 12 40  1  0
 12 41  1  0
 13 42  1  0
 13 43  1  0
 14 44  1  0
 14 45  1  0
 15 46  1  0
 15 47  1  0
 16 48  1  0
 16 49  1  0
 17 50  1  0
 17 51  1  0
M  CHG  1  20  -1
M  END
>  <meeko>  (2) 
{"is_sidechain": [false], "free_energy": -6.443, "intermolecular_energy": -11.573, "internal_energy": -2.819}

$$$$
linoleate_Nlobe_run03
     RDKit          3D

 51 50  0  0  0  0  0  0  0  0999 V2000
  -33.9550   22.7520   10.6610 C   0  0  0  0  0  0  0  0  0  0  0  0
  -34.7060   21.6120    9.9900 C   0  0  0  0  0  0  0  0  0  0  0  0
  -35.1580   21.9350    8.5640 C   0  0  0  0  0  0  0  0  0  0  0  0
  -35.4860   23.4160    8.3520 C   0  0  0  0  0  0  0  0  0  0  0  0
  -34.8390   23.9480    7.0670 C   0  0  0  0  0  0  0  0  0  0  0  0
  -33.5560   24.7180    7.2220 C   0  0  0  0  0  0  0  0  0  0  0  0
  -32.3230   24.3300    6.8600 C   0  0  0  0  0  0  0  0  0  0  0  0
  -32.0270   23.0050    6.2170 C   0  0  0  0  0  0  0  0  0  0  0  0
  -31.7360   21.9490    7.2420 C   0  0  0  0  0  0  0  0  0  0  0  0
  -31.9490   20.6390    7.0440 C   0  0  0  0  0  0  0  0  0  0  0  0
  -32.5030   20.0680    5.7690 C   0  0  0  0  0  0  0  0  0  0  0  0
  -34.0290   19.9260    5.7870 C   0  0  0  0  0  0  0  0  0  0  0  0
  -34.7310   20.7830    4.7280 C   0  0  0  0  0  0  0  0  0  0  0  0
  -36.1360   21.2320    5.1450 C   0  0  0  0  0  0  0  0  0  0  0  0
  -37.2440   20.6580    4.2580 C   0  0  0  0  0  0  0  0  0  0  0  0
  -38.5090   20.3660    5.0740 C   0  0  0  0  0  0  0  0  0  0  0  0
  -38.3460   20.7230    6.5510 C   0  0  0  0  0  0  0  0  0  0  0  0
  -39.5950   21.3150    7.1590 C   0  0  0  0  0  0  0  0  0  0  0  0
  -39.9310   22.4890    7.1130 O   0  0  0  0  0  0  0  0  0  0  0  0
  -40.3310   20.3430    7.7540 O   0  0  0  0  0  0  0  0  0  0  0  0
  -34.0256   22.6448   11.7535 H   0  0  0  0  0  0  0  0  0  0  0  0
  -32.8981   22.7237   10.3574 H   0  0  0  0  0  0  0  0  0  0  0  0
  -34.3982   23.7119   10.3574 H   0  0  0  0  0  0  0  0  0  0  0  0
  -34.0458   20.7328    9.9553 H   0  0  0  0  0  0  0  0  0  0  0  0
  -35.6138   21.4287   10.5836 H   0  0  0  0  0  0  0  0  0  0  0  0
  -34.3521   21.6533    7.8703 H   0  0  0  0  0  0  0  0  0  0  0  0
  -36.0820   21.3675    8.3792 H   0  0  0  0  0  0  0  0  0  0  0  0
  -36.5772   23.5354    8.2805 H   0  0  0  0  0  0  0  0  0  0  0  0
  -35.0889   23.9866    9.2045 H   0  0  0  0  0  0  0  0  0  0  0  0
  -34.6328   23.0853    6.4164 H   0  0  0  0  0  0  0  0  0  0  0  0
  -35.5610   24.6708    6.6592 H   0  0  0  0  0  0  0  0  0  0  0  0
  -33.6376   25.7126    7.6848 H   0  0  0  0  0  0  0  0  0  0  0  0
  -31.4851   25.0186    7.0439 H   0  0  0  0  0  0  0  0  0  0  0  0
  -32.8979   22.6944    5.6212 H   0  0  0  0  0  0  0  0  0  0  0  0
  -31.1380   23.1217    5.5798 H   0  0  0  0  0  0  0  0  0  0  0  0
  -31.3245   22.2667    8.2114 H   0  0  0  0  0  0  0  0  0  0  0  0
  -31.7044   19.9440    7.8608 H   0  0  0  0  0  0  0  0  0  0  0  0
  -32.2229   20.7315    4.9375 H   0  0  0  0  0  0  0  0  0  0  0  0
  -32.0811   19.0590    5.6509 H   0  0  0  0  0  0  0  0  0  0  0  0
  -34.2835   18.8711    5.6070 H   0  0  0  0  0  0  0  0  0  0  0  0
  -34.3767   20.2747    6.7706 H   0  0  0  0  0  0  0  0  0  0  0  0
  -34.1194   21.6781    4.5417 H   0  0  0  0  0  0  0  0  0  0  0  0
  -34.8416   20.1616    3.8271 H   0  0  0  0  0  0  0  0  0  0  0  0
  -36.3137   20.9059    6.1804 H   0  0  0  0  0  0  0  0  0  0  0  0
  -36.1716   22.3267    5.0430 H   0  0  0  0  0  0  0  0  0  0  0  0
  -37.4855   21.3853    3.4689 H   0  0  0  0  0  0  0  0  0  0  0  0
  -36.8864   19.7151    3.8186 H   0  0  0  0  0  0  0  0  0  0  0  0
  -39.3408   20.9538    4.6584 H   0  0  0  0  0  0  0  0  0  0  0  0
  -38.7068   19.2858    5.0103 H   0  0  0  0  0  0  0  0  0  0  0  0
  -38.0861   19.8091    7.1054 H   0  0  0  0  0  0  0  0  0  0  0  0
  -37.5555   21.4849    6.6188 H   0  0  0  0  0  0  0  0  0  0  0  0
  1  2  1  0
  2  3  1  0
  3  4  1  0
  4  5  1  0
  5  6  1  0
  6  7  2  0
  7  8  1  0
  8  9  1  0
  9 10  2  0
 10 11  1  0
 11 12  1  0
 12 13  1  0
 13 14  1  0
 14 15  1  0
 15 16  1  0
 16 17  1  0
 17 18  1  0
 18 19  2  0
 18 20  1  0
  1 21  1  0
  1 22  1  0
  1 23  1  0
  2 24  1  0
  2 25  1  0
  3 26  1  0
  3 27  1  0
  4 28  1  0
  4 29  1  0
  5 30  1  0
  5 31  1  0
  6 32  1  0
  7 33  1  0
  8 34  1  0
  8 35  1  0
  9 36  1  0
 10 37  1  0
 11 38  1  0
 11 39  1  0
 12 40  1  0
 12 41  1  0
 13 42  1  0
 13 43  1  0
 14 44  1  0
 14 45  1  0
 15 46  1  0
 15 47  1  0
 16 48  1  0
 16 49  1  0
 17 50  1  0
 17 51  1  0
M  CHG  1  20  -1
M  END
>  <meeko>  (3) 
{"is_sidechain": [false], "free_energy": -6.436, "intermolecular_energy": -11.756, "internal_energy": -2.623}

$$$$
linoleate_Nlobe_run03
     RDKit          3D

 51 50  0  0  0  0  0  0  0  0999 V2000
  -33.1430   24.7490    6.8950 C   0  0  0  0  0  0  0  0  0  0  0  0
  -32.2620   24.7700    8.1340 C   0  0  0  0  0  0  0  0  0  0  0  0
  -32.1890   23.4220    8.8550 C   0  0  0  0  0  0  0  0  0  0  0  0
  -33.3320   23.2040    9.8510 C   0  0  0  0  0  0  0  0  0  0  0  0
  -34.3470   22.1880    9.3140 C   0  0  0  0  0  0  0  0  0  0  0  0
  -34.5240   20.9210   10.1080 C   0  0  0  0  0  0  0  0  0  0  0  0
  -34.4490   19.6590    9.6570 C   0  0  0  0  0  0  0  0  0  0  0  0
  -34.1670   19.3060    8.2240 C   0  0  0  0  0  0  0  0  0  0  0  0
  -32.7000   19.1020    7.9870 C   0  0  0  0  0  0  0  0  0  0  0  0
  -31.9700   19.8470    7.1430 C   0  0  0  0  0  0  0  0  0  0  0  0
  -32.5320   20.9800    6.3330 C   0  0  0  0  0  0  0  0  0  0  0  0
  -32.8620   20.5820    4.8900 C   0  0  0  0  0  0  0  0  0  0  0  0
  -34.3580   20.6600    4.5660 C   0  0  0  0  0  0  0  0  0  0  0  0
  -35.1360   21.5780    5.5150 C   0  0  0  0  0  0  0  0  0  0  0  0
  -36.5860   21.1370    5.7310 C   0  0  0  0  0  0  0  0  0  0  0  0
  -37.1320   21.6670    7.0630 C   0  0  0  0  0  0  0  0  0  0  0  0
  -38.2020   20.7540    7.6590 C   0  0  0  0  0  0  0  0  0  0  0  0
  -39.6070   21.1690    7.2950 C   0  0  0  0  0  0  0  0  0  0  0  0
  -39.9410   22.2470    6.8280 O   0  0  0  0  0  0  0  0  0  0  0  0
  -40.4720   20.1490    7.5310 O   0  0  0  0  0  0  0  0  0  0  0  0
  -34.2003   24.7238    7.1973 H   0  0  0  0  0  0  0  0  0  0  0  0
  -32.9544   25.6519    6.2957 H   0  0  0  0  0  0  0  0  0  0  0  0
  -32.9116   23.8561    6.2957 H   0  0  0  0  0  0  0  0  0  0  0  0
  -31.2444   25.0590    7.8326 H   0  0  0  0  0  0  0  0  0  0  0  0
  -32.7094   25.4885    8.8366 H   0  0  0  0  0  0  0  0  0  0  0  0
  -32.2248   22.6210    8.1019 H   0  0  0  0  0  0  0  0  0  0  0  0
  -31.2506   23.4103    9.4289 H   0  0  0  0  0  0  0  0  0  0  0  0
  -32.9164   22.8300   10.7983 H   0  0  0  0  0  0  0  0  0  0  0  0
  -33.8473   24.1633   10.0064 H   0  0  0  0  0  0  0  0  0  0  0  0
  -35.3250   22.6890    9.2644 H   0  0  0  0  0  0  0  0  0  0  0  0
  -33.9447   21.8651    8.3424 H   0  0  0  0  0  0  0  0  0  0  0  0
  -34.7393   21.0435   11.1797 H   0  0  0  0  0  0  0  0  0  0  0  0
  -34.6021   18.8396   10.3747 H   0  0  0  0  0  0  0  0  0  0  0  0
  -34.7022   18.3785    7.9723 H   0  0  0  0  0  0  0  0  0  0  0  0
  -34.5068   20.1383    7.5901 H   0  0  0  0  0  0  0  0  0  0  0  0
  -32.1934   18.2951    8.5368 H   0  0  0  0  0  0  0  0  0  0  0  0
  -30.8999   19.6149    7.0385 H   0  0  0  0  0  0  0  0  0  0  0  0
  -33.4538   21.3336    6.8181 H   0  0  0  0  0  0  0  0  0  0  0  0
  -31.7625   21.7648    6.2889 H   0  0  0  0  0  0  0  0  0  0  0  0
  -32.3219   21.2568    4.2096 H   0  0  0  0  0  0  0  0  0  0  0  0
  -32.5558   19.5331    4.7635 H   0  0  0  0  0  0  0  0  0  0  0  0
  -34.4738   21.0394    3.5400 H   0  0  0  0  0  0  0  0  0  0  0  0
  -34.7700   19.6467    4.6818 H   0  0  0  0  0  0  0  0  0  0  0  0
  -34.6250   21.5869    6.4891 H   0  0  0  0  0  0  0  0  0  0  0  0
  -35.1644   22.5757    5.0526 H   0  0  0  0  0  0  0  0  0  0  0  0
  -37.2056   21.5247    4.9090 H   0  0  0  0  0  0  0  0  0  0  0  0
  -36.6171   20.0377    5.7534 H   0  0  0  0  0  0  0  0  0  0  0  0
  -36.3001   21.7496    7.7779 H   0  0  0  0  0  0  0  0  0  0  0  0
  -37.5961   22.6453    6.8695 H   0  0  0  0  0  0  0  0  0  0  0  0
  -38.0332   19.7311    7.2914 H   0  0  0  0  0  0  0  0  0  0  0  0
  -38.1149   20.8191    8.7536 H   0  0  0  0  0  0  0  0  0  0  0  0
  1  2  1  0
  2  3  1  0
  3  4  1  0
  4  5  1  0
  5  6  1  0
  6  7  2  0
  7  8  1  0
  8  9  1  0
  9 10  2  0
 10 11  1  0
 11 12  1  0
 12 13  1  0
 13 14  1  0
 14 15  1  0
 15 16  1  0
 16 17  1  0
 17 18  1  0
 18 19  2  0
 18 20  1  0
  1 21  1  0
  1 22  1  0
  1 23  1  0
  2 24  1  0
  2 25  1  0
  3 26  1  0
  3 27  1  0
  4 28  1  0
  4 29  1  0
  5 30  1  0
  5 31  1  0
  6 32  1  0
  7 33  1  0
  8 34  1  0
  8 35  1  0
  9 36  1  0
 10 37  1  0
 11 38  1  0
 11 39  1  0
 12 40  1  0
 12 41  1  0
 13 42  1  0
 13 43  1  0
 14 44  1  0
 14 45  1  0
 15 46  1  0
 15 47  1  0
 16 48  1  0
 16 49  1  0
 17 50  1  0
 17 51  1  0
M  CHG  1  20  -1
M  END
>  <meeko>  (4) 
{"is_sidechain": [false], "free_energy": -6.402, "intermolecular_energy": -11.641, "internal_energy": -2.676}

$$$$
linoleate_Nlobe_run03
     RDKit          3D

 51 50  0  0  0  0  0  0  0  0999 V2000
  -38.0810   20.8830    6.8890 C   0  0  0  0  0  0  0  0  0  0  0  0
  -36.8870   21.7390    7.2800 C   0  0  0  0  0  0  0  0  0  0  0  0
  -37.2670   23.1580    7.7100 C   0  0  0  0  0  0  0  0  0  0  0  0
  -36.0570   24.0750    7.9140 C   0  0  0  0  0  0  0  0  0  0  0  0
  -34.9570   23.7740    6.8890 C   0  0  0  0  0  0  0  0  0  0  0  0
  -33.6790   24.5600    7.0150 C   0  0  0  0  0  0  0  0  0  0  0  0
  -32.6090   24.2600    7.7680 C   0  0  0  0  0  0  0  0  0  0  0  0
  -32.5250   23.0400    8.6410 C   0  0  0  0  0  0  0  0  0  0  0  0
  -32.8510   23.3610   10.0690 C   0  0  0  0  0  0  0  0  0  0  0  0
  -33.8470   22.7810   10.7550 C   0  0  0  0  0  0  0  0  0  0  0  0
  -34.7590   21.7360   10.1770 C   0  0  0  0  0  0  0  0  0  0  0  0
  -34.6460   20.3810   10.8840 C   0  0  0  0  0  0  0  0  0  0  0  0
  -34.0420   19.2840   10.0010 C   0  0  0  0  0  0  0  0  0  0  0  0
  -34.0680   19.6260    8.5070 C   0  0  0  0  0  0  0  0  0  0  0  0
  -33.3800   18.5750    7.6320 C   0  0  0  0  0  0  0  0  0  0  0  0
  -32.9420   19.1730    6.2900 C   0  0  0  0  0  0  0  0  0  0  0  0
  -33.7760   20.3910    5.8950 C   0  0  0  0  0  0  0  0  0  0  0  0
  -33.1260   21.2320    4.8220 C   0  0  0  0  0  0  0  0  0  0  0  0
  -32.2450   22.0610    4.9920 O   0  0  0  0  0  0  0  0  0  0  0  0
  -33.6410   20.9180    3.6060 O   0  0  0  0  0  0  0  0  0  0  0  0
  -38.5857   20.5211    7.7969 H   0  0  0  0  0  0  0  0  0  0  0  0
  -38.7839   21.4842    6.2936 H   0  0  0  0  0  0  0  0  0  0  0  0
  -37.7373   20.0243    6.2936 H   0  0  0  0  0  0  0  0  0  0  0  0
  -36.3667   21.2494    8.1164 H   0  0  0  0  0  0  0  0  0  0  0  0
  -36.2495   21.8312    6.3884 H   0  0  0  0  0  0  0  0  0  0  0  0
  -37.9107   23.5972    6.9337 H   0  0  0  0  0  0  0  0  0  0  0  0
  -37.7812   23.0775    8.6791 H   0  0  0  0  0  0  0  0  0  0  0  0
  -36.3764   25.1216    7.8013 H   0  0  0  0  0  0  0  0  0  0  0  0
  -35.6525   23.9005    8.9219 H   0  0  0  0  0  0  0  0  0  0  0  0
  -34.7021   22.7076    6.9777 H   0  0  0  0  0  0  0  0  0  0  0  0
  -35.3808   24.0670    5.9171 H   0  0  0  0  0  0  0  0  0  0  0  0
  -33.6149   25.4848    6.4229 H   0  0  0  0  0  0  0  0  0  0  0  0
  -31.7477   24.9438    7.7447 H   0  0  0  0  0  0  0  0  0  0  0  0
  -33.2375   22.2873    8.2725 H   0  0  0  0  0  0  0  0  0  0  0  0
  -31.4944   22.6576    8.6004 H   0  0  0  0  0  0  0  0  0  0  0  0
  -32.2380   24.1156   10.5836 H   0  0  0  0  0  0  0  0  0  0  0  0
  -34.0051   23.0876   11.7995 H   0  0  0  0  0  0  0  0  0  0  0  0
  -35.7967   22.0905   10.2636 H   0  0  0  0  0  0  0  0  0  0  0  0
  -34.4613   21.5846    9.1289 H   0  0  0  0  0  0  0  0  0  0  0  0
  -34.0097   20.5032   11.7729 H   0  0  0  0  0  0  0  0  0  0  0  0
  -35.6666   20.0638   11.1445 H   0  0  0  0  0  0  0  0  0  0  0  0
  -32.9966   19.1269   10.3052 H   0  0  0  0  0  0  0  0  0  0  0  0
  -34.6539   18.3804   10.1393 H   0  0  0  0  0  0  0  0  0  0  0  0
  -35.1169   19.7138    8.1873 H   0  0  0  0  0  0  0  0  0  0  0  0
  -33.5149   20.5682    8.3793 H   0  0  0  0  0  0  0  0  0  0  0  0
  -32.4946   18.1918    8.1604 H   0  0  0  0  0  0  0  0  0  0  0  0
  -34.0952   17.7628    7.4351 H   0  0  0  0  0  0  0  0  0  0  0  0
  -31.8874   19.4765    6.3659 H   0  0  0  0  0  0  0  0  0  0  0  0
  -33.0854   18.4035    5.5172 H   0  0  0  0  0  0  0  0  0  0  0  0
  -34.7509   20.0421    5.5237 H   0  0  0  0  0  0  0  0  0  0  0  0
  -33.8779   21.0227    6.7898 H   0  0  0  0  0  0  0  0  0  0  0  0
  1  2  1  0
  2  3  1  0
  3  4  1  0
  4  5  1  0
  5  6  1  0
  6  7  2  0
  7  8  1  0
  8  9  1  0
  9 10  2  0
 10 11  1  0
 11 12  1  0
 12 13  1  0
 13 14  1  0
 14 15  1  0
 15 16  1  0
 16 17  1  0
 17 18  1  0
 18 19  2  0
 18 20  1  0
  1 21  1  0
  1 22  1  0
  1 23  1  0
  2 24  1  0
  2 25  1  0
  3 26  1  0
  3 27  1  0
  4 28  1  0
  4 29  1  0
  5 30  1  0
  5 31  1  0
  6 32  1  0
  7 33  1  0
  8 34  1  0
  8 35  1  0
  9 36  1  0
 10 37  1  0
 11 38  1  0
 11 39  1  0
 12 40  1  0
 12 41  1  0
 13 42  1  0
 13 43  1  0
 14 44  1  0
 14 45  1  0
 15 46  1  0
 15 47  1  0
 16 48  1  0
 16 49  1  0
 17 50  1  0
 17 51  1  0
M  CHG  1  20  -1
M  END
>  <meeko>  (5) 
{"is_sidechain": [false], "free_energy": -6.387, "intermolecular_energy": -11.584, "internal_energy": -2.706}

$$$$
linoleate_Nlobe_run03
     RDKit          3D

 51 50  0  0  0  0  0  0  0  0999 V2000
  -39.7060   22.0690    7.3900 C   0  0  0  0  0  0  0  0  0  0  0  0
  -39.6490   20.5840    7.7110 C   0  0  0  0  0  0  0  0  0  0  0  0
  -38.9240   19.7560    6.6470 C   0  0  0  0  0  0  0  0  0  0  0  0
  -38.4470   20.5880    5.4520 C   0  0  0  0  0  0  0  0  0  0  0  0
  -36.9310   20.4590    5.2590 C   0  0  0  0  0  0  0  0  0  0  0  0
  -36.1150   21.7080    5.4510 C   0  0  0  0  0  0  0  0  0  0  0  0
  -35.7950   22.3030    6.6110 C   0  0  0  0  0  0  0  0  0  0  0  0
  -36.2270   21.7870    7.9540 C   0  0  0  0  0  0  0  0  0  0  0  0
  -35.2690   20.7630    8.4840 C   0  0  0  0  0  0  0  0  0  0  0  0
  -34.4790   20.9620    9.5510 C   0  0  0  0  0  0  0  0  0  0  0  0
  -34.4590   22.2360   10.3470 C   0  0  0  0  0  0  0  0  0  0  0  0
  -33.1980   23.0750   10.1080 C   0  0  0  0  0  0  0  0  0  0  0  0
  -33.1640   23.7380    8.7270 C   0  0  0  0  0  0  0  0  0  0  0  0
  -31.8610   23.4790    7.9620 C   0  0  0  0  0  0  0  0  0  0  0  0
  -31.7280   22.0380    7.4630 C   0  0  0  0  0  0  0  0  0  0  0  0
  -32.2020   21.9110    6.0100 C   0  0  0  0  0  0  0  0  0  0  0  0
  -32.7480   20.5190    5.6940 C   0  0  0  0  0  0  0  0  0  0  0  0
  -32.8770   20.2530    4.2140 C   0  0  0  0  0  0  0  0  0  0  0  0
  -33.4840   20.9430    3.4090 O   0  0  0  0  0  0  0  0  0  0  0  0
  -32.1870   19.1330    3.8780 O   0  0  0  0  0  0  0  0  0  0  0  0
  -39.7281   22.6459    8.3263 H   0  0  0  0  0  0  0  0  0  0  0  0
  -38.8181   22.3522    6.8057 H   0  0  0  0  0  0  0  0  0  0  0  0
  -40.6130   22.2833    6.8057 H   0  0  0  0  0  0  0  0  0  0  0  0
  -39.1247   20.4550    8.6694 H   0  0  0  0  0  0  0  0  0  0  0  0
  -40.6869   20.2218    7.7507 H   0  0  0  0  0  0  0  0  0  0  0  0
  -38.0485   19.2794    7.1122 H   0  0  0  0  0  0  0  0  0  0  0  0
  -39.6432   19.0174    6.2632 H   0  0  0  0  0  0  0  0  0  0  0  0
  -38.9561   20.2356    4.5428 H   0  0  0  0  0  0  0  0  0  0  0  0
  -38.6860   21.6444    5.6443 H   0  0  0  0  0  0  0  0  0  0  0  0
  -36.5665   19.7095    5.9770 H   0  0  0  0  0  0  0  0  0  0  0  0
  -36.7972   20.1870    4.2016 H   0  0  0  0  0  0  0  0  0  0  0  0
  -35.7374   22.1887    4.5365 H   0  0  0  0  0  0  0  0  0  0  0  0
  -35.1839   23.2170    6.5763 H   0  0  0  0  0  0  0  0  0  0  0  0
  -36.2776   22.6285    8.6607 H   0  0  0  0  0  0  0  0  0  0  0  0
  -37.2122   21.3111    7.8400 H   0  0  0  0  0  0  0  0  0  0  0  0
  -35.2100   19.7928    7.9690 H   0  0  0  0  0  0  0  0  0  0  0  0
  -33.8086   20.1464    9.8598 H   0  0  0  0  0  0  0  0  0  0  0  0
  -35.3372   22.8368   10.0682 H   0  0  0  0  0  0  0  0  0  0  0  0
  -34.4711   21.9580   11.4112 H   0  0  0  0  0  0  0  0  0  0  0  0
  -33.1521   23.8625   10.8746 H   0  0  0  0  0  0  0  0  0  0  0  0
  -32.3372   22.3924   10.1630 H   0  0  0  0  0  0  0  0  0  0  0  0
  -34.0022   23.3472    8.1314 H   0  0  0  0  0  0  0  0  0  0  0  0
  -33.2387   24.8240    8.8850 H   0  0  0  0  0  0  0  0  0  0  0  0
  -31.8258   24.1537    7.0940 H   0  0  0  0  0  0  0  0  0  0  0  0
  -31.0313   23.6595    8.6613 H   0  0  0  0  0  0  0  0  0  0  0  0
  -30.6731   21.7323    7.5248 H   0  0  0  0  0  0  0  0  0  0  0  0
  -32.3556   21.3907    8.0931 H   0  0  0  0  0  0  0  0  0  0  0  0
  -32.9964   22.6507    5.8318 H   0  0  0  0  0  0  0  0  0  0  0  0
  -31.3337   22.0863    5.3578 H   0  0  0  0  0  0  0  0  0  0  0  0
  -32.0676   19.7702    6.1258 H   0  0  0  0  0  0  0  0  0  0  0  0
  -33.7576   20.4579    6.1264 H   0  0  0  0  0  0  0  0  0  0  0  0
  1  2  1  0
  2  3  1  0
  3  4  1  0
  4  5  1  0
  5  6  1  0
  6  7  2  0
  7  8  1  0
  8  9  1  0
  9 10  2  0
 10 11  1  0
 11 12  1  0
 12 13  1  0
 13 14  1  0
 14 15  1  0
 15 16  1  0
 16 17  1  0
 17 18  1  0
 18 19  2  0
 18 20  1  0
  1 21  1  0
  1 22  1  0
  1 23  1  0
  2 24  1  0
  2 25  1  0
  3 26  1  0
  3 27  1  0
  4 28  1  0
  4 29  1  0
  5 30  1  0
  5 31  1  0
  6 32  1  0
  7 33  1  0
  8 34  1  0
  8 35  1  0
  9 36  1  0
 10 37  1  0
 11 38  1  0
 11 39  1  0
 12 40  1  0
 12 41  1  0
 13 42  1  0
 13 43  1  0
 14 44  1  0
 14 45  1  0
 15 46  1  0
 15 47  1  0
 16 48  1  0
 16 49  1  0
 17 50  1  0
 17 51  1  0
M  CHG  1  20  -1
M  END
>  <meeko>  (6) 
{"is_sidechain": [false], "free_energy": -6.322, "intermolecular_energy": -11.535, "internal_energy": -2.637}

$$$$
linoleate_Nlobe_run03
     RDKit          3D

 51 50  0  0  0  0  0  0  0  0999 V2000
  -32.5190   25.2910    7.2170 C   0  0  0  0  0  0  0  0  0  0  0  0
  -31.8890   24.1690    8.0270 C   0  0  0  0  0  0  0  0  0  0  0  0
  -31.8280   22.8360    7.2790 C   0  0  0  0  0  0  0  0  0  0  0  0
  -32.6860   22.8110    6.0110 C   0  0  0  0  0  0  0  0  0  0  0  0
  -32.8910   21.3770    5.5090 C   0  0  0  0  0  0  0  0  0  0  0  0
  -34.1110   21.1200    4.6660 C   0  0  0  0  0  0  0  0  0  0  0  0
  -35.3550   20.8540    5.0930 C   0  0  0  0  0  0  0  0  0  0  0  0
  -35.7330   20.7670    6.5440 C   0  0  0  0  0  0  0  0  0  0  0  0
  -36.8890   21.6670    6.8670 C   0  0  0  0  0  0  0  0  0  0  0  0
  -36.7700   22.8190    7.5430 C   0  0  0  0  0  0  0  0  0  0  0  0
  -35.4640   23.3520    8.0600 C   0  0  0  0  0  0  0  0  0  0  0  0
  -35.2190   23.0180    9.5360 C   0  0  0  0  0  0  0  0  0  0  0  0
  -34.1610   21.9290    9.7430 C   0  0  0  0  0  0  0  0  0  0  0  0
  -34.7200   20.6570   10.3900 C   0  0  0  0  0  0  0  0  0  0  0  0
  -34.1980   19.3700    9.7470 C   0  0  0  0  0  0  0  0  0  0  0  0
  -33.2470   19.6780    8.5850 C   0  0  0  0  0  0  0  0  0  0  0  0
  -32.9920   18.4590    7.7000 C   0  0  0  0  0  0  0  0  0  0  0  0
  -31.5950   18.4220    7.1290 C   0  0  0  0  0  0  0  0  0  0  0  0
  -31.2590   17.8910    6.0810 O   0  0  0  0  0  0  0  0  0  0  0  0
  -30.7420   19.1010    7.9370 O   0  0  0  0  0  0  0  0  0  0  0  0
  -32.9414   26.0433    7.8993 H   0  0  0  0  0  0  0  0  0  0  0  0
  -31.7525   25.7604    6.5828 H   0  0  0  0  0  0  0  0  0  0  0  0
  -33.3188   24.8810    6.5828 H   0  0  0  0  0  0  0  0  0  0  0  0
  -30.8639   24.4656    8.2940 H   0  0  0  0  0  0  0  0  0  0  0  0
  -32.5228   24.0142    8.9127 H   0  0  0  0  0  0  0  0  0  0  0  0
  -30.7827   22.6420    6.9967 H   0  0  0  0  0  0  0  0  0  0  0  0
  -32.2256   22.0652    7.9556 H   0  0  0  0  0  0  0  0  0  0  0  0
  -33.6667   23.2574    6.2324 H   0  0  0  0  0  0  0  0  0  0  0  0
  -32.1674   23.3836    5.2279 H   0  0  0  0  0  0  0  0  0  0  0  0
  -32.0095   21.1052    4.9099 H   0  0  0  0  0  0  0  0  0  0  0  0
  -33.0364   20.7728    6.4166 H   0  0  0  0  0  0  0  0  0  0  0  0
  -33.9665   21.1541    3.5761 H   0  0  0  0  0  0  0  0  0  0  0  0
  -36.1401   20.6909    4.3399 H   0  0  0  0  0  0  0  0  0  0  0  0
  -36.0117   19.7292    6.7789 H   0  0  0  0  0  0  0  0  0  0  0  0
  -34.8689   21.0866    7.1450 H   0  0  0  0  0  0  0  0  0  0  0  0
  -37.8915   21.3646    6.5301 H   0  0  0  0  0  0  0  0  0  0  0  0
  -37.6806   23.4073    7.7296 H   0  0  0  0  0  0  0  0  0  0  0  0
  -34.6482   22.9183    7.4630 H   0  0  0  0  0  0  0  0  0  0  0  0
  -35.5004   24.4480    7.9739 H   0  0  0  0  0  0  0  0  0  0  0  0
  -34.8852   23.9314   10.0500 H   0  0  0  0  0  0  0  0  0  0  0  0
  -36.1655   22.6349    9.9450 H   0  0  0  0  0  0  0  0  0  0  0  0
  -33.7355   21.6647    8.7637 H   0  0  0  0  0  0  0  0  0  0  0  0
  -33.4027   22.3369   10.4275 H   0  0  0  0  0  0  0  0  0  0  0  0
  -34.4396   20.6543   11.4537 H   0  0  0  0  0  0  0  0  0  0  0  0
  -35.8107   20.6723   10.2484 H   0  0  0  0  0  0  0  0  0  0  0  0
  -33.6596   18.7826   10.5054 H   0  0  0  0  0  0  0  0  0  0  0  0
  -35.0555   18.8035    9.3549 H   0  0  0  0  0  0  0  0  0  0  0  0
  -33.6889   20.4751    7.9691 H   0  0  0  0  0  0  0  0  0  0  0  0
  -32.2827   19.9871    9.0147 H   0  0  0  0  0  0  0  0  0  0  0  0
  -33.1483   17.5513    8.3013 H   0  0  0  0  0  0  0  0  0  0  0  0
  -33.6907   18.5178    6.8524 H   0  0  0  0  0  0  0  0  0  0  0  0
  1  2  1  0
  2  3  1  0
  3  4  1  0
  4  5  1  0
  5  6  1  0
  6  7  2  0
  7  8  1  0
  8  9  1  0
  9 10  2  0
 10 11  1  0
 11 12  1  0
 12 13  1  0
 13 14  1  0
 14 15  1  0
 15 16  1  0
 16 17  1  0
 17 18  1  0
 18 19  2  0
 18 20  1  0
  1 21  1  0
  1 22  1  0
  1 23  1  0
  2 24  1  0
  2 25  1  0
  3 26  1  0
  3 27  1  0
  4 28  1  0
  4 29  1  0
  5 30  1  0
  5 31  1  0
  6 32  1  0
  7 33  1  0
  8 34  1  0
  8 35  1  0
  9 36  1  0
 10 37  1  0
 11 38  1  0
 11 39  1  0
 12 40  1  0
 12 41  1  0
 13 42  1  0
 13 43  1  0
 14 44  1  0
 14 45  1  0
 15 46  1  0
 15 47  1  0
 16 48  1  0
 16 49  1  0
 17 50  1  0
 17 51  1  0
M  CHG  1  20  -1
M  END
>  <meeko>  (7) 
{"is_sidechain": [false], "free_energy": -6.31, "intermolecular_energy": -11.282, "internal_energy": -2.868}

$$$$
linoleate_Nlobe_run03
     RDKit          3D

 51 50  0  0  0  0  0  0  0  0999 V2000
  -39.1070   21.8030    7.2370 C   0  0  0  0  0  0  0  0  0  0  0  0
  -37.6560   21.5300    6.8710 C   0  0  0  0  0  0  0  0  0  0  0  0
  -37.4850   20.4070    5.8460 C   0  0  0  0  0  0  0  0  0  0  0  0
  -36.6070   20.8030    4.6550 C   0  0  0  0  0  0  0  0  0  0  0  0
  -35.2960   21.4460    5.1230 C   0  0  0  0  0  0  0  0  0  0  0  0
  -34.0260   20.6980    4.8170 C   0  0  0  0  0  0  0  0  0  0  0  0
  -32.7680   21.0930    5.0640 C   0  0  0  0  0  0  0  0  0  0  0  0
  -32.4220   22.4040    5.7110 C   0  0  0  0  0  0  0  0  0  0  0  0
  -31.7200   22.2020    7.0210 C   0  0  0  0  0  0  0  0  0  0  0  0
  -32.0930   22.7950    8.1660 C   0  0  0  0  0  0  0  0  0  0  0  0
  -33.2610   23.7330    8.2770 C   0  0  0  0  0  0  0  0  0  0  0  0
  -34.5740   23.0200    8.6190 C   0  0  0  0  0  0  0  0  0  0  0  0
  -34.5480   22.3240    9.9840 C   0  0  0  0  0  0  0  0  0  0  0  0
  -34.6710   20.7990    9.8910 C   0  0  0  0  0  0  0  0  0  0  0  0
  -34.7380   20.2840    8.4510 C   0  0  0  0  0  0  0  0  0  0  0  0
  -34.0410   18.9240    8.3180 C   0  0  0  0  0  0  0  0  0  0  0  0
  -32.5200   19.0520    8.2530 C   0  0  0  0  0  0  0  0  0  0  0  0
  -31.8980   18.1990    7.1730 C   0  0  0  0  0  0  0  0  0  0  0  0
  -30.7280   17.8560    7.1110 O   0  0  0  0  0  0  0  0  0  0  0  0
  -32.8420   17.8280    6.2700 O   0  0  0  0  0  0  0  0  0  0  0  0
  -39.2115   21.8227    8.3318 H   0  0  0  0  0  0  0  0  0  0  0  0
  -39.4133   22.7745    6.8219 H   0  0  0  0  0  0  0  0  0  0  0  0
  -39.7454   21.0092    6.8219 H   0  0  0  0  0  0  0  0  0  0  0  0
  -37.2232   22.4511    6.4535 H   0  0  0  0  0  0  0  0  0  0  0  0
  -37.1457   21.2083    7.7909 H   0  0  0  0  0  0  0  0  0  0  0  0
  -37.0241   19.5434    6.3478 H   0  0  0  0  0  0  0  0  0  0  0  0
  -38.4841   20.1716    5.4505 H   0  0  0  0  0  0  0  0  0  0  0  0
  -36.3753   19.9038    4.0653 H   0  0  0  0  0  0  0  0  0  0  0  0
  -37.1563   21.5354    4.0452 H   0  0  0  0  0  0  0  0  0  0  0  0
  -35.2223   22.4353    4.6477 H   0  0  0  0  0  0  0  0  0  0  0  0
  -35.3610   21.4657    6.2209 H   0  0  0  0  0  0  0  0  0  0  0  0
  -34.1428   19.7156    4.3361 H   0  0  0  0  0  0  0  0  0  0  0  0
  -31.9457   20.4209    4.7774 H   0  0  0  0  0  0  0  0  0  0  0  0
  -31.7645   22.9727    5.0370 H   0  0  0  0  0  0  0  0  0  0  0  0
  -33.3564   22.9524    5.9011 H   0  0  0  0  0  0  0  0  0  0  0  0
  -30.8498   21.5295    7.0448 H   0  0  0  0  0  0  0  0  0  0  0  0
  -31.5104   22.5820    9.0744 H   0  0  0  0  0  0  0  0  0  0  0  0
  -33.0459   24.4682    9.0664 H   0  0  0  0  0  0  0  0  0  0  0  0
  -33.3930   24.2103    7.2948 H   0  0  0  0  0  0  0  0  0  0  0  0
  -35.3847   23.7635    8.6216 H   0  0  0  0  0  0  0  0  0  0  0  0
  -34.7291   22.2404    7.8586 H   0  0  0  0  0  0  0  0  0  0  0  0
  -33.5978   22.5677   10.4818 H   0  0  0  0  0  0  0  0  0  0  0  0
  -35.4185   22.6865   10.5505 H   0  0  0  0  0  0  0  0  0  0  0  0
  -33.7969   20.3475   10.3830 H   0  0  0  0  0  0  0  0  0  0  0  0
  -35.6142   20.5175   10.3821 H   0  0  0  0  0  0  0  0  0  0  0  0
  -35.7924   20.1777    8.1562 H   0  0  0  0  0  0  0  0  0  0  0  0
  -34.2247   21.0050    7.7978 H   0  0  0  0  0  0  0  0  0  0  0  0
  -34.3064   18.3047    9.1875 H   0  0  0  0  0  0  0  0  0  0  0  0
  -34.3791   18.4649    7.3773 H   0  0  0  0  0  0  0  0  0  0  0  0
  -32.2655   20.1042    8.0577 H   0  0  0  0  0  0  0  0  0  0  0  0
  -32.1206   18.7029    9.2166 H   0  0  0  0  0  0  0  0  0  0  0  0
  1  2  1  0
  2  3  1  0
  3  4  1  0
  4  5  1  0
  5  6  1  0
  6  7  2  0
  7  8  1  0
  8  9  1  0
  9 10  2  0
 10 11  1  0
 11 12  1  0
 12 13  1  0
 13 14  1  0
 14 15  1  0
 15 16  1  0
 16 17  1  0
 17 18  1  0
 18 19  2  0
 18 20  1  0
  1 21  1  0
  1 22  1  0
  1 23  1  0
  2 24  1  0
  2 25  1  0
  3 26  1  0
  3 27  1  0
  4 28  1  0
  4 29  1  0
  5 30  1  0
  5 31  1  0
  6 32  1  0
  7 33  1  0
  8 34  1  0
  8 35  1  0
  9 36  1  0
 10 37  1  0
 11 38  1  0
 11 39  1  0
 12 40  1  0
 12 41  1  0
 13 42  1  0
 13 43  1  0
 14 44  1  0
 14 45  1  0
 15 46  1  0
 15 47  1  0
 16 48  1  0
 16 49  1  0
 17 50  1  0
 17 51  1  0
M  CHG  1  20  -1
M  END
>  <meeko>  (8) 
{"is_sidechain": [false], "free_energy": -6.303, "intermolecular_energy": -11.293, "internal_energy": -2.844}

$$$$
linoleate_Nlobe_run03
     RDKit          3D

 51 50  0  0  0  0  0  0  0  0999 V2000
  -38.6040   20.6810    7.4250 C   0  0  0  0  0  0  0  0  0  0  0  0
  -37.4220   20.6500    6.4690 C   0  0  0  0  0  0  0  0  0  0  0  0
  -37.8270   20.4860    5.0020 C   0  0  0  0  0  0  0  0  0  0  0  0
  -36.6350   20.4800    4.0410 C   0  0  0  0  0  0  0  0  0  0  0  0
  -35.3950   21.1020    4.6940 C   0  0  0  0  0  0  0  0  0  0  0  0
  -34.0610   20.5220    4.3080 C   0  0  0  0  0  0  0  0  0  0  0  0
  -33.0860   20.1020    5.1290 C   0  0  0  0  0  0  0  0  0  0  0  0
  -33.1840   20.1550    6.6270 C   0  0  0  0  0  0  0  0  0  0  0  0
  -31.9200   20.6780    7.2430 C   0  0  0  0  0  0  0  0  0  0  0  0
  -31.4640   21.9260    7.0610 C   0  0  0  0  0  0  0  0  0  0  0  0
  -32.1640   22.9550    6.2190 C   0  0  0  0  0  0  0  0  0  0  0  0
  -32.1330   24.3590    6.8350 C   0  0  0  0  0  0  0  0  0  0  0  0
  -33.4470   24.7490    7.5200 C   0  0  0  0  0  0  0  0  0  0  0  0
  -34.6720   24.0420    6.9300 C   0  0  0  0  0  0  0  0  0  0  0  0
  -35.5600   23.3820    7.9880 C   0  0  0  0  0  0  0  0  0  0  0  0
  -34.7180   22.6360    9.0300 C   0  0  0  0  0  0  0  0  0  0  0  0
  -35.1410   21.1750    9.1840 C   0  0  0  0  0  0  0  0  0  0  0  0
  -34.5990   20.5300   10.4360 C   0  0  0  0  0  0  0  0  0  0  0  0
  -34.6070   21.0140   11.5570 O   0  0  0  0  0  0  0  0  0  0  0  0
  -34.1140   19.2940   10.1520 O   0  0  0  0  0  0  0  0  0  0  0  0
  -38.2372   20.6714    8.4620 H   0  0  0  0  0  0  0  0  0  0  0  0
  -39.1914   21.5949    7.2523 H   0  0  0  0  0  0  0  0  0  0  0  0
  -39.2385   19.7992    7.2523 H   0  0  0  0  0  0  0  0  0  0  0  0
  -36.8652   21.5930    6.5731 H   0  0  0  0  0  0  0  0  0  0  0  0
  -36.8128   19.7740    6.7362 H   0  0  0  0  0  0  0  0  0  0  0  0
  -38.3676   19.5342    4.8935 H   0  0  0  0  0  0  0  0  0  0  0  0
  -38.4532   21.3511    4.7385 H   0  0  0  0  0  0  0  0  0  0  0  0
  -36.4084   19.4419    3.7565 H   0  0  0  0  0  0  0  0  0  0  0  0
  -36.8984   21.0757    3.1546 H   0  0  0  0  0  0  0  0  0  0  0  0
  -35.3816   22.1703    4.4321 H   0  0  0  0  0  0  0  0  0  0  0  0
  -35.4999   20.8917    5.7686 H   0  0  0  0  0  0  0  0  0  0  0  0
  -33.8625   20.4321    3.2298 H   0  0  0  0  0  0  0  0  0  0  0  0
  -32.1663   19.6975    4.6812 H   0  0  0  0  0  0  0  0  0  0  0  0
  -34.0180   20.8152    6.9074 H   0  0  0  0  0  0  0  0  0  0  0  0
  -33.3514   19.1331    6.9981 H   0  0  0  0  0  0  0  0  0  0  0  0
  -31.3340   19.9993    7.8801 H   0  0  0  0  0  0  0  0  0  0  0  0
  -30.5244   22.2125    7.5561 H   0  0  0  0  0  0  0  0  0  0  0  0
  -31.6745   22.9937    5.2347 H   0  0  0  0  0  0  0  0  0  0  0  0
  -33.2192   22.6536    6.1428 H   0  0  0  0  0  0  0  0  0  0  0  0
  -31.3259   24.3951    7.5815 H   0  0  0  0  0  0  0  0  0  0  0  0
  -31.9696   25.0719    6.0134 H   0  0  0  0  0  0  0  0  0  0  0  0
  -33.3747   24.4902    8.5867 H   0  0  0  0  0  0  0  0  0  0  0  0
  -33.5876   25.8287    7.3637 H   0  0  0  0  0  0  0  0  0  0  0  0
  -35.2731   24.7835    6.3833 H   0  0  0  0  0  0  0  0  0  0  0  0
  -34.3005   23.2423    6.2724 H   0  0  0  0  0  0  0  0  0  0  0  0
  -36.1526   24.1582    8.4943 H   0  0  0  0  0  0  0  0  0  0  0  0
  -36.2185   22.6568    7.4876 H   0  0  0  0  0  0  0  0  0  0  0  0
  -33.6631   22.6675    8.7198 H   0  0  0  0  0  0  0  0  0  0  0  0
  -34.8681   23.1325   10.0000 H   0  0  0  0  0  0  0  0  0  0  0  0
  -36.2397   21.1301    9.2147 H   0  0  0  0  0  0  0  0  0  0  0  0
  -34.7297   20.6226    8.3263 H   0  0  0  0  0  0  0  0  0  0  0  0
  1  2  1  0
  2  3  1  0
  3  4  1  0
  4  5  1  0
  5  6  1  0
  6  7  2  0
  7  8  1  0
  8  9  1  0
  9 10  2  0
 10 11  1  0
 11 12  1  0
 12 13  1  0
 13 14  1  0
 14 15  1  0
 15 16  1  0
 16 17  1  0
 17 18  1  0
 18 19  2  0
 18 20  1  0
  1 21  1  0
  1 22  1  0
  1 23  1  0
  2 24  1  0
  2 25  1  0
  3 26  1  0
  3 27  1  0
  4 28  1  0
  4 29  1  0
  5 30  1  0
  5 31  1  0
  6 32  1  0
  7 33  1  0
  8 34  1  0
  8 35  1  0
  9 36  1  0
 10 37  1  0
 11 38  1  0
 11 39  1  0
 12 40  1  0
 12 41  1  0
 13 42  1  0
 13 43  1  0
 14 44  1  0
 14 45  1  0
 15 46  1  0
 15 47  1  0
 16 48  1  0
 16 49  1  0
 17 50  1  0
 17 51  1  0
M  CHG  1  20  -1
M  END
>  <meeko>  (9) 
{"is_sidechain": [false], "free_energy": -6.265, "intermolecular_energy": -11.659, "internal_energy": -2.41}

$$$$
linoleate_Nlobe_run03
     RDKit          3D

 51 50  0  0  0  0  0  0  0  0999 V2000
  -36.2210   20.8290    4.3600 C   0  0  0  0  0  0  0  0  0  0  0  0
  -37.4440   20.4590    5.1840 C   0  0  0  0  0  0  0  0  0  0  0  0
  -37.2340   20.6060    6.6920 C   0  0  0  0  0  0  0  0  0  0  0  0
  -37.3890   22.0460    7.1880 C   0  0  0  0  0  0  0  0  0  0  0  0
  -36.1160   22.5280    7.8940 C   0  0  0  0  0  0  0  0  0  0  0  0
  -35.3180   21.4900    8.6360 C   0  0  0  0  0  0  0  0  0  0  0  0
  -34.3910   21.6990    9.5850 C   0  0  0  0  0  0  0  0  0  0  0  0
  -33.9920   23.0640   10.0680 C   0  0  0  0  0  0  0  0  0  0  0  0
  -32.5490   23.3510    9.7780 C   0  0  0  0  0  0  0  0  0  0  0  0
  -32.1340   24.1600    8.7910 C   0  0  0  0  0  0  0  0  0  0  0  0
  -33.0640   24.8800    7.8560 C   0  0  0  0  0  0  0  0  0  0  0  0
  -33.2400   24.1630    6.5130 C   0  0  0  0  0  0  0  0  0  0  0  0
  -32.1920   23.0720    6.2660 C   0  0  0  0  0  0  0  0  0  0  0  0
  -32.7830   21.6580    6.2400 C   0  0  0  0  0  0  0  0  0  0  0  0
  -32.5650   20.9340    4.9090 C   0  0  0  0  0  0  0  0  0  0  0  0
  -32.7760   19.4220    5.0610 C   0  0  0  0  0  0  0  0  0  0  0  0
  -33.0340   19.0120    6.5100 C   0  0  0  0  0  0  0  0  0  0  0  0
  -31.8230   18.4090    7.1800 C   0  0  0  0  0  0  0  0  0  0  0  0
  -31.5690   18.4440    8.3740 O   0  0  0  0  0  0  0  0  0  0  0  0
  -31.0470   17.7780    6.2620 O   0  0  0  0  0  0  0  0  0  0  0  0
  -35.3881   21.0810    5.0329 H   0  0  0  0  0  0  0  0  0  0  0  0
  -35.9350   19.9772    3.7255 H   0  0  0  0  0  0  0  0  0  0  0  0
  -36.4551   21.6965    3.7255 H   0  0  0  0  0  0  0  0  0  0  0  0
  -38.2764   21.1124    4.8835 H   0  0  0  0  0  0  0  0  0  0  0  0
  -37.6545   19.3969    4.9897 H   0  0  0  0  0  0  0  0  0  0  0  0
  -37.9727   19.9769    7.2102 H   0  0  0  0  0  0  0  0  0  0  0  0
  -36.2009   20.2965    6.9085 H   0  0  0  0  0  0  0  0  0  0  0  0
  -37.5932   22.7017    6.3287 H   0  0  0  0  0  0  0  0  0  0  0  0
  -38.2208   22.0797    7.9071 H   0  0  0  0  0  0  0  0  0  0  0  0
  -35.4590   22.9701    7.1305 H   0  0  0  0  0  0  0  0  0  0  0  0
  -36.4630   23.2307    8.6658 H   0  0  0  0  0  0  0  0  0  0  0  0
  -35.5165   20.4410    8.3710 H   0  0  0  0  0  0  0  0  0  0  0  0
  -33.8976   20.8236   10.0325 H   0  0  0  0  0  0  0  0  0  0  0  0
  -34.6145   23.8175    9.5633 H   0  0  0  0  0  0  0  0  0  0  0  0
  -34.1383   23.1003   11.1576 H   0  0  0  0  0  0  0  0  0  0  0  0
  -31.7874   22.8711   10.4102 H   0  0  0  0  0  0  0  0  0  0  0  0
  -31.0515   24.3042    8.6590 H   0  0  0  0  0  0  0  0  0  0  0  0
  -34.0487   24.9657    8.3388 H   0  0  0  0  0  0  0  0  0  0  0  0
  -32.6209   25.8648    7.6465 H   0  0  0  0  0  0  0  0  0  0  0  0
  -34.2375   23.6999    6.4926 H   0  0  0  0  0  0  0  0  0  0  0  0
  -33.1171   24.9177    5.7223 H   0  0  0  0  0  0  0  0  0  0  0  0
  -31.7079   23.2659    5.2975 H   0  0  0  0  0  0  0  0  0  0  0  0
  -31.4779   23.1112    7.1018 H   0  0  0  0  0  0  0  0  0  0  0  0
  -32.3114   21.0679    7.0396 H   0  0  0  0  0  0  0  0  0  0  0  0
  -33.8692   21.7567    6.3826 H   0  0  0  0  0  0  0  0  0  0  0  0
  -33.2780   21.3234    4.1674 H   0  0  0  0  0  0  0  0  0  0  0  0
  -31.5301   21.1108    4.5808 H   0  0  0  0  0  0  0  0  0  0  0  0
  -33.6405   19.1229    4.4501 H   0  0  0  0  0  0  0  0  0  0  0  0
  -31.8549   18.9201    4.7297 H   0  0  0  0  0  0  0  0  0  0  0  0
  -33.3399   19.9037    7.0769 H   0  0  0  0  0  0  0  0  0  0  0  0
  -33.8193   18.2419    6.4978 H   0  0  0  0  0  0  0  0  0  0  0  0
  1  2  1  0
  2  3  1  0
  3  4  1  0
  4  5  1  0
  5  6  1  0
  6  7  2  0
  7  8  1  0
  8  9  1  0
  9 10  2  0
 10 11  1  0
 11 12  1  0
 12 13  1  0
 13 14  1  0
 14 15  1  0
 15 16  1  0
 16 17  1  0
 17 18  1  0
 18 19  2  0
 18 20  1  0
  1 21  1  0
  1 22  1  0
  1 23  1  0
  2 24  1  0
  2 25  1  0
  3 26  1  0
  3 27  1  0
  4 28  1  0
  4 29  1  0
  5 30  1  0
  5 31  1  0
  6 32  1  0
  7 33  1  0
  8 34  1  0
  8 35  1  0
  9 36  1  0
 10 37  1  0
 11 38  1  0
 11 39  1  0
 12 40  1  0
 12 41  1  0
 13 42  1  0
 13 43  1  0
 14 44  1  0
 14 45  1  0
 15 46  1  0
 15 47  1  0
 16 48  1  0
 16 49  1  0
 17 50  1  0
 17 51  1  0
M  CHG  1  20  -1
M  END
>  <meeko>  (10) 
{"is_sidechain": [false], "free_energy": -6.202, "intermolecular_energy": -11.483, "internal_energy": -2.47}

$$$$
linoleate_Nlobe_run03
     RDKit          3D

 51 50  0  0  0  0  0  0  0  0999 V2000
  -31.8530   24.6340    8.6710 C   0  0  0  0  0  0  0  0  0  0  0  0
  -32.1100   24.7910    7.1800 C   0  0  0  0  0  0  0  0  0  0  0  0
  -32.2140   23.4580    6.4350 C   0  0  0  0  0  0  0  0  0  0  0  0
  -31.5930   22.2850    7.1990 C   0  0  0  0  0  0  0  0  0  0  0  0
  -32.0520   20.9420    6.6180 C   0  0  0  0  0  0  0  0  0  0  0  0
  -31.7730   19.7150    7.4440 C   0  0  0  0  0  0  0  0  0  0  0  0
  -32.6530   18.9960    8.1580 C   0  0  0  0  0  0  0  0  0  0  0  0
  -34.1160   19.3250    8.2450 C   0  0  0  0  0  0  0  0  0  0  0  0
  -34.5320   19.6130    9.6570 C   0  0  0  0  0  0  0  0  0  0  0  0
  -34.5790   20.8460   10.1840 C   0  0  0  0  0  0  0  0  0  0  0  0
  -34.2230   22.0910    9.4230 C   0  0  0  0  0  0  0  0  0  0  0  0
  -35.3170   23.1630    9.4770 C   0  0  0  0  0  0  0  0  0  0  0  0
  -35.8900   23.5150    8.0990 C   0  0  0  0  0  0  0  0  0  0  0  0
  -35.3320   22.6420    6.9700 C   0  0  0  0  0  0  0  0  0  0  0  0
  -36.3560   21.6560    6.4030 C   0  0  0  0  0  0  0  0  0  0  0  0
  -37.6960   21.7640    7.1410 C   0  0  0  0  0  0  0  0  0  0  0  0
  -38.3010   20.3960    7.4550 C   0  0  0  0  0  0  0  0  0  0  0  0
  -39.6950   20.2240    6.9030 C   0  0  0  0  0  0  0  0  0  0  0  0
  -40.7200   20.1100    7.5580 O   0  0  0  0  0  0  0  0  0  0  0  0
  -39.6660   20.2420    5.5460 O   0  0  0  0  0  0  0  0  0  0  0  0
  -32.6585   25.1261    9.2357 H   0  0  0  0  0  0  0  0  0  0  0  0
  -31.8255   23.5647    8.9277 H   0  0  0  0  0  0  0  0  0  0  0  0
  -30.8891   25.0976    8.9277 H   0  0  0  0  0  0  0  0  0  0  0  0
  -33.0537   25.3398    7.0452 H   0  0  0  0  0  0  0  0  0  0  0  0
  -31.2495   25.3312    6.7583 H   0  0  0  0  0  0  0  0  0  0  0  0
  -33.2776   23.2374    6.2616 H   0  0  0  0  0  0  0  0  0  0  0  0
  -31.6536   23.5666    5.4947 H   0  0  0  0  0  0  0  0  0  0  0  0
  -30.4972   22.3508    7.1292 H   0  0  0  0  0  0  0  0  0  0  0  0
  -31.9179   22.3407    8.2484 H   0  0  0  0  0  0  0  0  0  0  0  0
  -33.1397   20.9999    6.4648 H   0  0  0  0  0  0  0  0  0  0  0  0
  -31.4636   20.8099    5.6980 H   0  0  0  0  0  0  0  0  0  0  0  0
  -30.7293   19.3682    7.4648 H   0  0  0  0  0  0  0  0  0  0  0  0
  -32.2831   18.1188    8.7090 H   0  0  0  0  0  0  0  0  0  0  0  0
  -34.3208   20.2099    7.6245 H   0  0  0  0  0  0  0  0  0  0  0  0
  -34.6870   18.4553    7.8877 H   0  0  0  0  0  0  0  0  0  0  0  0
  -34.8148   18.7645   10.2973 H   0  0  0  0  0  0  0  0  0  0  0  0
  -34.8960   20.9509   11.2321 H   0  0  0  0  0  0  0  0  0  0  0  0
  -33.3004   22.5107    9.8505 H   0  0  0  0  0  0  0  0  0  0  0  0
  -34.0959   21.8053    8.3684 H   0  0  0  0  0  0  0  0  0  0  0  0
  -36.1361   22.7942   10.1119 H   0  0  0  0  0  0  0  0  0  0  0  0
  -34.8578   24.0769    9.8820 H   0  0  0  0  0  0  0  0  0  0  0  0
  -36.9821   23.3874    8.1319 H   0  0  0  0  0  0  0  0  0  0  0  0
  -35.6007   24.5537    7.8813 H   0  0  0  0  0  0  0  0  0  0  0  0
  -34.9927   23.2993    6.1559 H   0  0  0  0  0  0  0  0  0  0  0  0
  -34.5091   22.0481    7.3945 H   0  0  0  0  0  0  0  0  0  0  0  0
  -36.5145   21.8764    5.3370 H   0  0  0  0  0  0  0  0  0  0  0  0
  -35.9670   20.6354    6.5339 H   0  0  0  0  0  0  0  0  0  0  0  0
  -37.5364   22.3047    8.0855 H   0  0  0  0  0  0  0  0  0  0  0  0
  -38.3982   22.2981    6.4841 H   0  0  0  0  0  0  0  0  0  0  0  0
  -37.6543   19.6193    7.0208 H   0  0  0  0  0  0  0  0  0  0  0  0
  -38.3690   20.3110    8.5496 H   0  0  0  0  0  0  0  0  0  0  0  0
  1  2  1  0
  2  3  1  0
  3  4  1  0
  4  5  1  0
  5  6  1  0
  6  7  2  0
  7  8  1  0
  8  9  1  0
  9 10  2  0
 10 11  1  0
 11 12  1  0
 12 13  1  0
 13 14  1  0
 14 15  1  0
 15 16  1  0
 16 17  1  0
 17 18  1  0
 18 19  2  0
 18 20  1  0
  1 21  1  0
  1 22  1  0
  1 23  1  0
  2 24  1  0
  2 25  1  0
  3 26  1  0
  3 27  1  0
  4 28  1  0
  4 29  1  0
  5 30  1  0
  5 31  1  0
  6 32  1  0
  7 33  1  0
  8 34  1  0
  8 35  1  0
  9 36  1  0
 10 37  1  0
 11 38  1  0
 11 39  1  0
 12 40  1  0
 12 41  1  0
 13 42  1  0
 13 43  1  0
 14 44  1  0
 14 45  1  0
 15 46  1  0
 15 47  1  0
 16 48  1  0
 16 49  1  0
 17 50  1  0
 17 51  1  0
M  CHG  1  20  -1
M  END
>  <meeko>  (11) 
{"is_sidechain": [false], "free_energy": -6.197, "intermolecular_energy": -11.295, "internal_energy": -2.65}

$$$$
linoleate_Nlobe_run03
     RDKit          3D

 51 50  0  0  0  0  0  0  0  0999 V2000
  -34.6930   20.7860    9.7290 C   0  0  0  0  0  0  0  0  0  0  0  0
  -34.0110   19.4350    9.5770 C   0  0  0  0  0  0  0  0  0  0  0  0
  -33.9000   18.9670    8.1240 C   0  0  0  0  0  0  0  0  0  0  0  0
  -32.4750   18.5810    7.7180 C   0  0  0  0  0  0  0  0  0  0  0  0
  -32.1910   18.9700    6.2620 C   0  0  0  0  0  0  0  0  0  0  0  0
  -33.0910   20.0090    5.6490 C   0  0  0  0  0  0  0  0  0  0  0  0
  -32.9160   21.3400    5.6500 C   0  0  0  0  0  0  0  0  0  0  0  0
  -31.7430   22.0230    6.2940 C   0  0  0  0  0  0  0  0  0  0  0  0
  -32.0060   22.3200    7.7400 C   0  0  0  0  0  0  0  0  0  0  0  0
  -32.6170   23.4320    8.1740 C   0  0  0  0  0  0  0  0  0  0  0  0
  -33.1170   24.5180    7.2630 C   0  0  0  0  0  0  0  0  0  0  0  0
  -34.5700   24.3120    6.8210 C   0  0  0  0  0  0  0  0  0  0  0  0
  -35.5370   24.1130    7.9940 C   0  0  0  0  0  0  0  0  0  0  0  0
  -36.5990   23.0400    7.7290 C   0  0  0  0  0  0  0  0  0  0  0  0
  -36.2340   22.0970    6.5800 C   0  0  0  0  0  0  0  0  0  0  0  0
  -37.3080   21.0190    6.3870 C   0  0  0  0  0  0  0  0  0  0  0  0
  -38.1840   20.8410    7.6260 C   0  0  0  0  0  0  0  0  0  0  0  0
  -39.6580   20.9930    7.3360 C   0  0  0  0  0  0  0  0  0  0  0  0
  -40.5070   20.1220    7.4470 O   0  0  0  0  0  0  0  0  0  0  0  0
  -39.9300   22.2670    6.9550 O   0  0  0  0  0  0  0  0  0  0  0  0
  -34.8107   21.0192   10.7975 H   0  0  0  0  0  0  0  0  0  0  0  0
  -34.0790   21.5627    9.2497 H   0  0  0  0  0  0  0  0  0  0  0  0
  -35.6825   20.7532    9.2497 H   0  0  0  0  0  0  0  0  0  0  0  0
  -32.9973   19.5074    9.9978 H   0  0  0  0  0  0  0  0  0  0  0  0
  -34.6314   18.6979   10.1078 H   0  0  0  0  0  0  0  0  0  0  0  0
  -34.5508   18.0905    7.9891 H   0  0  0  0  0  0  0  0  0  0  0  0
  -34.2026   19.8108    7.4865 H   0  0  0  0  0  0  0  0  0  0  0  0
  -31.7613   19.1005    8.3744 H   0  0  0  0  0  0  0  0  0  0  0  0
  -32.3672   17.4907    7.8156 H   0  0  0  0  0  0  0  0  0  0  0  0
  -31.1607   19.3525    6.2147 H   0  0  0  0  0  0  0  0  0  0  0  0
  -32.3701   18.0543    5.6794 H   0  0  0  0  0  0  0  0  0  0  0  0
  -33.9937   19.6358    5.1433 H   0  0  0  0  0  0  0  0  0  0  0  0
  -33.6725   21.9645    5.1523 H   0  0  0  0  0  0  0  0  0  0  0  0
  -30.8623   21.3683    6.2180 H   0  0  0  0  0  0  0  0  0  0  0  0
  -31.5691   22.9756    5.7721 H   0  0  0  0  0  0  0  0  0  0  0  0
  -31.6788   21.5830    8.4882 H   0  0  0  0  0  0  0  0  0  0  0  0
  -32.7603   23.5564    9.2575 H   0  0  0  0  0  0  0  0  0  0  0  0
  -33.0454   25.4795    7.7926 H   0  0  0  0  0  0  0  0  0  0  0  0
  -32.4933   24.4986    6.3572 H   0  0  0  0  0  0  0  0  0  0  0  0
  -34.8903   25.1962    6.2503 H   0  0  0  0  0  0  0  0  0  0  0  0
  -34.5997   23.3949    6.2144 H   0  0  0  0  0  0  0  0  0  0  0  0
  -34.9554   23.8174    8.8796 H   0  0  0  0  0  0  0  0  0  0  0  0
  -36.0666   25.0653    8.1448 H   0  0  0  0  0  0  0  0  0  0  0  0
  -36.7273   22.4425    8.6436 H   0  0  0  0  0  0  0  0  0  0  0  0
  -37.5238   23.5613    7.4411 H   0  0  0  0  0  0  0  0  0  0  0  0
  -36.1403   22.6807    5.6524 H   0  0  0  0  0  0  0  0  0  0  0  0
  -35.2824   21.6020    6.8236 H   0  0  0  0  0  0  0  0  0  0  0  0
  -37.9484   21.3060    5.5399 H   0  0  0  0  0  0  0  0  0  0  0  0
  -36.7949   20.0643    6.1991 H   0  0  0  0  0  0  0  0  0  0  0  0
  -38.0098   19.8354    8.0364 H   0  0  0  0  0  0  0  0  0  0  0  0
  -37.9070   21.6308    8.3398 H   0  0  0  0  0  0  0  0  0  0  0  0
  1  2  1  0
  2  3  1  0
  3  4  1  0
  4  5  1  0
  5  6  1  0
  6  7  2  0
  7  8  1  0
  8  9  1  0
  9 10  2  0
 10 11  1  0
 11 12  1  0
 12 13  1  0
 13 14  1  0
 14 15  1  0
 15 16  1  0
 16 17  1  0
 17 18  1  0
 18 19  2  0
 18 20  1  0
  1 21  1  0
  1 22  1  0
  1 23  1  0
  2 24  1  0
  2 25  1  0
  3 26  1  0
  3 27  1  0
  4 28  1  0
  4 29  1  0
  5 30  1  0
  5 31  1  0
  6 32  1  0
  7 33  1  0
  8 34  1  0
  8 35  1  0
  9 36  1  0
 10 37  1  0
 11 38  1  0
 11 39  1  0
 12 40  1  0
 12 41  1  0
 13 42  1  0
 13 43  1  0
 14 44  1  0
 14 45  1  0
 15 46  1  0
 15 47  1  0
 16 48  1  0
 16 49  1  0
 17 50  1  0
 17 51  1  0
M  CHG  1  20  -1
M  END
>  <meeko>  (12) 
{"is_sidechain": [false], "free_energy": -6.19, "intermolecular_energy": -11.225, "internal_energy": -2.707}

$$$$
linoleate_Nlobe_run03
     RDKit          3D

 51 50  0  0  0  0  0  0  0  0999 V2000
  -34.2530   24.6880    6.4380 C   0  0  0  0  0  0  0  0  0  0  0  0
  -32.7760   24.4340    6.6950 C   0  0  0  0  0  0  0  0  0  0  0  0
  -32.1810   25.3330    7.7810 C   0  0  0  0  0  0  0  0  0  0  0  0
  -31.7600   24.5680    9.0390 C   0  0  0  0  0  0  0  0  0  0  0  0
  -32.4250   23.1870    9.0940 C   0  0  0  0  0  0  0  0  0  0  0  0
  -33.4550   22.9730   10.1700 C   0  0  0  0  0  0  0  0  0  0  0  0
  -34.6340   22.3400   10.0560 C   0  0  0  0  0  0  0  0  0  0  0  0
  -35.1240   21.7250    8.7760 C   0  0  0  0  0  0  0  0  0  0  0  0
  -36.0820   22.6320    8.0610 C   0  0  0  0  0  0  0  0  0  0  0  0
  -37.0530   22.1950    7.2440 C   0  0  0  0  0  0  0  0  0  0  0  0
  -37.3010   20.7440    6.9460 C   0  0  0  0  0  0  0  0  0  0  0  0
  -37.3170   20.4330    5.4450 C   0  0  0  0  0  0  0  0  0  0  0  0
  -36.1490   21.0660    4.6820 C   0  0  0  0  0  0  0  0  0  0  0  0
  -34.7990   20.4060    4.9820 C   0  0  0  0  0  0  0  0  0  0  0  0
  -33.7020   21.4080    5.3510 C   0  0  0  0  0  0  0  0  0  0  0  0
  -32.4750   20.6950    5.9310 C   0  0  0  0  0  0  0  0  0  0  0  0
  -32.8540   19.5620    6.8840 C   0  0  0  0  0  0  0  0  0  0  0  0
  -31.8580   18.4270    6.8830 C   0  0  0  0  0  0  0  0  0  0  0  0
  -31.3430   17.9210    7.8680 O   0  0  0  0  0  0  0  0  0  0  0  0
  -31.6240   18.0120    5.6130 O   0  0  0  0  0  0  0  0  0  0  0  0
  -34.7819   24.7790    7.3982 H   0  0  0  0  0  0  0  0  0  0  0  0
  -34.3706   25.6195    5.8649 H   0  0  0  0  0  0  0  0  0  0  0  0
  -34.6750   23.8492    5.8649 H   0  0  0  0  0  0  0  0  0  0  0  0
  -32.6518   23.3857    7.0044 H   0  0  0  0  0  0  0  0  0  0  0  0
  -32.2419   24.6597    5.7602 H   0  0  0  0  0  0  0  0  0  0  0  0
  -31.2962   25.8397    7.3683 H   0  0  0  0  0  0  0  0  0  0  0  0
  -32.9650   26.0442    8.0800 H   0  0  0  0  0  0  0  0  0  0  0  0
  -30.6674   24.4406    9.0332 H   0  0  0  0  0  0  0  0  0  0  0  0
  -32.0775   25.1440    9.9207 H   0  0  0  0  0  0  0  0  0  0  0  0
  -32.9156   23.0149    8.1246 H   0  0  0  0  0  0  0  0  0  0  0  0
  -31.6118   22.4848    9.3298 H   0  0  0  0  0  0  0  0  0  0  0  0
  -33.2150   23.3815   11.1628 H   0  0  0  0  0  0  0  0  0  0  0  0
  -35.2748   22.2681   10.9472 H   0  0  0  0  0  0  0  0  0  0  0  0
  -34.2622   21.5280    8.1214 H   0  0  0  0  0  0  0  0  0  0  0  0
  -35.6511   20.7913    9.0216 H   0  0  0  0  0  0  0  0  0  0  0  0
  -35.9828   23.7166    8.2152 H   0  0  0  0  0  0  0  0  0  0  0  0
  -37.7039   22.9417    6.7657 H   0  0  0  0  0  0  0  0  0  0  0  0
  -36.5059   20.1486    7.4185 H   0  0  0  0  0  0  0  0  0  0  0  0
  -38.2952   20.4925    7.3439 H   0  0  0  0  0  0  0  0  0  0  0  0
  -37.2690   19.3419    5.3141 H   0  0  0  0  0  0  0  0  0  0  0  0
  -38.2438   20.8597    5.0340 H   0  0  0  0  0  0  0  0  0  0  0  0
  -36.3482   20.9785    3.6037 H   0  0  0  0  0  0  0  0  0  0  0  0
  -36.0780   22.1144    5.0072 H   0  0  0  0  0  0  0  0  0  0  0  0
  -34.9309   19.7081    5.8220 H   0  0  0  0  0  0  0  0  0  0  0  0
  -34.4761   19.8941    4.0635 H   0  0  0  0  0  0  0  0  0  0  0  0
  -33.4027   21.9614    4.4487 H   0  0  0  0  0  0  0  0  0  0  0  0
  -34.0988   22.0955    6.1126 H   0  0  0  0  0  0  0  0  0  0  0  0
  -31.8853   20.2766    5.1020 H   0  0  0  0  0  0  0  0  0  0  0  0
  -31.8975   21.4353    6.5041 H   0  0  0  0  0  0  0  0  0  0  0  0
  -32.9189   19.9695    7.9037 H   0  0  0  0  0  0  0  0  0  0  0  0
  -33.8160   19.1536    6.5408 H   0  0  0  0  0  0  0  0  0  0  0  0
  1  2  1  0
  2  3  1  0
  3  4  1  0
  4  5  1  0
  5  6  1  0
  6  7  2  0
  7  8  1  0
  8  9  1  0
  9 10  2  0
 10 11  1  0
 11 12  1  0
 12 13  1  0
 13 14  1  0
 14 15  1  0
 15 16  1  0
 16 17  1  0
 17 18  1  0
 18 19  2  0
 18 20  1  0
  1 21  1  0
  1 22  1  0
  1 23  1  0
  2 24  1  0
  2 25  1  0
  3 26  1  0
  3 27  1  0
  4 28  1  0
  4 29  1  0
  5 30  1  0
  5 31  1  0
  6 32  1  0
  7 33  1  0
  8 34  1  0
  8 35  1  0
  9 36  1  0
 10 37  1  0
 11 38  1  0
 11 39  1  0
 12 40  1  0
 12 41  1  0
 13 42  1  0
 13 43  1  0
 14 44  1  0
 14 45  1  0
 15 46  1  0
 15 47  1  0
 16 48  1  0
 16 49  1  0
 17 50  1  0
 17 51  1  0
M  CHG  1  20  -1
M  END
>  <meeko>  (13) 
{"is_sidechain": [false], "free_energy": -6.157, "intermolecular_energy": -11.521, "internal_energy": -2.35}

$$$$
linoleate_Nlobe_run03
     RDKit          3D

 51 50  0  0  0  0  0  0  0  0999 V2000
  -33.1220   20.6040    4.3740 C   0  0  0  0  0  0  0  0  0  0  0  0
  -32.6800   19.4330    5.2380 C   0  0  0  0  0  0  0  0  0  0  0  0
  -32.3710   19.8240    6.6850 C   0  0  0  0  0  0  0  0  0  0  0  0
  -33.0750   18.9370    7.7160 C   0  0  0  0  0  0  0  0  0  0  0  0
  -34.3030   19.6420    8.3060 C   0  0  0  0  0  0  0  0  0  0  0  0
  -34.3930   19.7050    9.8070 C   0  0  0  0  0  0  0  0  0  0  0  0
  -34.5510   20.7990   10.5680 C   0  0  0  0  0  0  0  0  0  0  0  0
  -34.6650   22.1890   10.0090 C   0  0  0  0  0  0  0  0  0  0  0  0
  -33.4620   23.0190   10.3480 C   0  0  0  0  0  0  0  0  0  0  0  0
  -32.5510   23.4120    9.4460 C   0  0  0  0  0  0  0  0  0  0  0  0
  -32.6230   23.0720    7.9840 C   0  0  0  0  0  0  0  0  0  0  0  0
  -33.1290   24.2330    7.1200 C   0  0  0  0  0  0  0  0  0  0  0  0
  -34.6410   24.1940    6.8780 C   0  0  0  0  0  0  0  0  0  0  0  0
  -35.1680   22.7900    6.5600 C   0  0  0  0  0  0  0  0  0  0  0  0
  -36.5110   22.4810    7.2270 C   0  0  0  0  0  0  0  0  0  0  0  0
  -37.2060   21.2960    6.5460 C   0  0  0  0  0  0  0  0  0  0  0  0
  -38.2090   20.6010    7.4660 C   0  0  0  0  0  0  0  0  0  0  0  0
  -39.6290   21.0670    7.2570 C   0  0  0  0  0  0  0  0  0  0  0  0
  -39.9750   22.1850    6.9070 O   0  0  0  0  0  0  0  0  0  0  0  0
  -40.4950   20.0470    7.4850 O   0  0  0  0  0  0  0  0  0  0  0  0
  -33.4366   21.4375    5.0192 H   0  0  0  0  0  0  0  0  0  0  0  0
  -32.2843   20.9279    3.7390 H   0  0  0  0  0  0  0  0  0  0  0  0
  -33.9648   20.2935    3.7390 H   0  0  0  0  0  0  0  0  0  0  0  0
  -33.4839   18.6822    5.2444 H   0  0  0  0  0  0  0  0  0  0  0  0
  -31.7482   19.0432    4.8023 H   0  0  0  0  0  0  0  0  0  0  0  0
  -31.2850   19.7482    6.8428 H   0  0  0  0  0  0  0  0  0  0  0  0
  -32.7406   20.8497    6.8312 H   0  0  0  0  0  0  0  0  0  0  0  0
  -33.3960   18.0048    7.2281 H   0  0  0  0  0  0  0  0  0  0  0  0
  -32.3694   18.7236    8.5325 H   0  0  0  0  0  0  0  0  0  0  0  0
  -34.3069   20.6753    7.9287 H   0  0  0  0  0  0  0  0  0  0  0  0
  -35.1634   19.0332    7.9912 H   0  0  0  0  0  0  0  0  0  0  0  0
  -34.3211   18.7458   10.3407 H   0  0  0  0  0  0  0  0  0  0  0  0
  -34.5997   20.6713   11.6595 H   0  0  0  0  0  0  0  0  0  0  0  0
  -34.7598   22.1274    8.9148 H   0  0  0  0  0  0  0  0  0  0  0  0
  -35.5504   22.6676   10.4528 H   0  0  0  0  0  0  0  0  0  0  0  0
  -33.3193   23.3223   11.3957 H   0  0  0  0  0  0  0  0  0  0  0  0
  -31.7024   24.0180    9.7963 H   0  0  0  0  0  0  0  0  0  0  0  0
  -31.6164   22.7924    7.6397 H   0  0  0  0  0  0  0  0  0  0  0  0
  -33.3404   22.2453    7.8748 H   0  0  0  0  0  0  0  0  0  0  0  0
  -32.8805   25.1781    7.6250 H   0  0  0  0  0  0  0  0  0  0  0  0
  -32.6396   24.1462    6.1387 H   0  0  0  0  0  0  0  0  0  0  0  0
  -35.1489   24.5611    7.7820 H   0  0  0  0  0  0  0  0  0  0  0  0
  -34.8471   24.8257    6.0014 H   0  0  0  0  0  0  0  0  0  0  0  0
  -35.2910   22.7019    5.4705 H   0  0  0  0  0  0  0  0  0  0  0  0
  -34.4355   22.0703    6.9544 H   0  0  0  0  0  0  0  0  0  0  0  0
  -36.3385   22.2364    8.2855 H   0  0  0  0  0  0  0  0  0  0  0  0
  -37.1584   23.3655    7.1351 H   0  0  0  0  0  0  0  0  0  0  0  0
  -37.7384   21.6628    5.6560 H   0  0  0  0  0  0  0  0  0  0  0  0
  -36.4317   20.5618    6.2788 H   0  0  0  0  0  0  0  0  0  0  0  0
  -38.1649   19.5183    7.2769 H   0  0  0  0  0  0  0  0  0  0  0  0
  -37.9316   20.8513    8.5006 H   0  0  0  0  0  0  0  0  0  0  0  0
  1  2  1  0
  2  3  1  0
  3  4  1  0
  4  5  1  0
  5  6  1  0
  6  7  2  0
  7  8  1  0
  8  9  1  0
  9 10  2  0
 10 11  1  0
 11 12  1  0
 12 13  1  0
 13 14  1  0
 14 15  1  0
 15 16  1  0
 16 17  1  0
 17 18  1  0
 18 19  2  0
 18 20  1  0
  1 21  1  0
  1 22  1  0
  1 23  1  0
  2 24  1  0
  2 25  1  0
  3 26  1  0
  3 27  1  0
  4 28  1  0
  4 29  1  0
  5 30  1  0
  5 31  1  0
  6 32  1  0
  7 33  1  0
  8 34  1  0
  8 35  1  0
  9 36  1  0
 10 37  1  0
 11 38  1  0
 11 39  1  0
 12 40  1  0
 12 41  1  0
 13 42  1  0
 13 43  1  0
 14 44  1  0
 14 45  1  0
 15 46  1  0
 15 47  1  0
 16 48  1  0
 16 49  1  0
 17 50  1  0
 17 51  1  0
M  CHG  1  20  -1
M  END
>  <meeko>  (14) 
{"is_sidechain": [false], "free_energy": -6.147, "intermolecular_energy": -11.368, "internal_energy": -2.486}

$$$$
linoleate_Nlobe_run03
     RDKit          3D

 51 50  0  0  0  0  0  0  0  0999 V2000
  -32.0160   18.7260    7.9830 C   0  0  0  0  0  0  0  0  0  0  0  0
  -31.8020   20.0110    7.1980 C   0  0  0  0  0  0  0  0  0  0  0  0
  -32.8540   20.2450    6.1110 C   0  0  0  0  0  0  0  0  0  0  0  0
  -32.6590   21.5610    5.3510 C   0  0  0  0  0  0  0  0  0  0  0  0
  -31.8320   22.5560    6.1740 C   0  0  0  0  0  0  0  0  0  0  0  0
  -32.5570   23.7610    6.7110 C   0  0  0  0  0  0  0  0  0  0  0  0
  -32.8750   24.0180    7.9890 C   0  0  0  0  0  0  0  0  0  0  0  0
  -32.5400   23.0970    9.1280 C   0  0  0  0  0  0  0  0  0  0  0  0
  -33.6290   23.0800   10.1600 C   0  0  0  0  0  0  0  0  0  0  0  0
  -34.5560   22.1140   10.2500 C   0  0  0  0  0  0  0  0  0  0  0  0
  -34.6170   20.9300    9.3280 C   0  0  0  0  0  0  0  0  0  0  0  0
  -35.8480   20.9410    8.4150 C   0  0  0  0  0  0  0  0  0  0  0  0
  -36.0100   22.2490    7.6310 C   0  0  0  0  0  0  0  0  0  0  0  0
  -36.1030   22.0400    6.1160 C   0  0  0  0  0  0  0  0  0  0  0  0
  -36.4640   20.6050    5.7220 C   0  0  0  0  0  0  0  0  0  0  0  0
  -37.9650   20.4710    5.4380 C   0  0  0  0  0  0  0  0  0  0  0  0
  -38.7180   19.8010    6.5860 C   0  0  0  0  0  0  0  0  0  0  0  0
  -39.6860   20.7280    7.2810 C   0  0  0  0  0  0  0  0  0  0  0  0
  -39.4900   21.9030    7.5510 O   0  0  0  0  0  0  0  0  0  0  0  0
  -40.8460   20.0760    7.5500 O   0  0  0  0  0  0  0  0  0  0  0  0
  -31.9797   18.9442    9.0605 H   0  0  0  0  0  0  0  0  0  0  0  0
  -32.9975   18.2998    7.7281 H   0  0  0  0  0  0  0  0  0  0  0  0
  -31.2256   18.0047    7.7281 H   0  0  0  0  0  0  0  0  0  0  0  0
  -31.8328   20.8572    7.9002 H   0  0  0  0  0  0  0  0  0  0  0  0
  -30.8288   19.9232    6.6928 H   0  0  0  0  0  0  0  0  0  0  0  0
  -32.8023   19.4151    5.3908 H   0  0  0  0  0  0  0  0  0  0  0  0
  -33.8322   20.2999    6.6112 H   0  0  0  0  0  0  0  0  0  0  0  0
  -32.1367   21.3556    4.4050 H   0  0  0  0  0  0  0  0  0  0  0  0
  -33.6476   22.0033    5.1585 H   0  0  0  0  0  0  0  0  0  0  0  0
  -31.4126   22.0103    7.0321 H   0  0  0  0  0  0  0  0  0  0  0  0
  -31.0853   22.9581    5.4735 H   0  0  0  0  0  0  0  0  0  0  0  0
  -32.8606   24.5168    5.9717 H   0  0  0  0  0  0  0  0  0  0  0  0
  -33.4093   24.9526    8.2149 H   0  0  0  0  0  0  0  0  0  0  0  0
  -32.4034   22.0784    8.7357 H   0  0  0  0  0  0  0  0  0  0  0  0
  -31.6178   23.4598    9.6054 H   0  0  0  0  0  0  0  0  0  0  0  0
  -33.6698   23.9068   10.8843 H   0  0  0  0  0  0  0  0  0  0  0  0
  -35.3136   22.1938   11.0435 H   0  0  0  0  0  0  0  0  0  0  0  0
  -33.7147   20.9295    8.6989 H   0  0  0  0  0  0  0  0  0  0  0  0
  -34.6824   20.0290    9.9556 H   0  0  0  0  0  0  0  0  0  0  0  0
  -35.7576   20.1125    7.6971 H   0  0  0  0  0  0  0  0  0  0  0  0
  -36.7329   20.8359    9.0599 H   0  0  0  0  0  0  0  0  0  0  0  0
  -36.9289   22.7487    7.9716 H   0  0  0  0  0  0  0  0  0  0  0  0
  -35.1129   22.8563    7.8216 H   0  0  0  0  0  0  0  0  0  0  0  0
  -36.8740   22.7157    5.7173 H   0  0  0  0  0  0  0  0  0  0  0  0
  -35.1082   22.2517    5.6969 H   0  0  0  0  0  0  0  0  0  0  0  0
  -35.9013   20.3283    4.8182 H   0  0  0  0  0  0  0  0  0  0  0  0
  -36.2058   19.9380    6.5577 H   0  0  0  0  0  0  0  0  0  0  0  0
  -38.3852   21.4750    5.2784 H   0  0  0  0  0  0  0  0  0  0  0  0
  -38.0821   19.8382    4.5459 H   0  0  0  0  0  0  0  0  0  0  0  0
  -39.2803   18.9455    6.1836 H   0  0  0  0  0  0  0  0  0  0  0  0
  -37.9706   19.4895    7.3305 H   0  0  0  0  0  0  0  0  0  0  0  0
  1  2  1  0
  2  3  1  0
  3  4  1  0
  4  5  1  0
  5  6  1  0
  6  7  2  0
  7  8  1  0
  8  9  1  0
  9 10  2  0
 10 11  1  0
 11 12  1  0
 12 13  1  0
 13 14  1  0
 14 15  1  0
 15 16  1  0
 16 17  1  0
 17 18  1  0
 18 19  2  0
 18 20  1  0
  1 21  1  0
  1 22  1  0
  1 23  1  0
  2 24  1  0
  2 25  1  0
  3 26  1  0
  3 27  1  0
  4 28  1  0
  4 29  1  0
  5 30  1  0
  5 31  1  0
  6 32  1  0
  7 33  1  0
  8 34  1  0
  8 35  1  0
  9 36  1  0
 10 37  1  0
 11 38  1  0
 11 39  1  0
 12 40  1  0
 12 41  1  0
 13 42  1  0
 13 43  1  0
 14 44  1  0
 14 45  1  0
 15 46  1  0
 15 47  1  0
 16 48  1  0
 16 49  1  0
 17 50  1  0
 17 51  1  0
M  CHG  1  20  -1
M  END
>  <meeko>  (15) 
{"is_sidechain": [false], "free_energy": -6.128, "intermolecular_energy": -10.869, "internal_energy": -2.951}

$$$$
linoleate_Nlobe_run03
     RDKit          3D

 51 50  0  0  0  0  0  0  0  0999 V2000
  -37.9570   22.0810    7.3080 C   0  0  0  0  0  0  0  0  0  0  0  0
  -37.2680   20.8290    6.7900 C   0  0  0  0  0  0  0  0  0  0  0  0
  -37.7000   20.4350    5.3760 C   0  0  0  0  0  0  0  0  0  0  0  0
  -36.5440   20.4160    4.3710 C   0  0  0  0  0  0  0  0  0  0  0  0
  -35.2800   21.0430    4.9710 C   0  0  0  0  0  0  0  0  0  0  0  0
  -33.9880   20.7980    4.2400 C   0  0  0  0  0  0  0  0  0  0  0  0
  -32.7810   20.5590    4.7760 C   0  0  0  0  0  0  0  0  0  0  0  0
  -32.5270   20.4990    6.2550 C   0  0  0  0  0  0  0  0  0  0  0  0
  -32.4010   19.0830    6.7350 C   0  0  0  0  0  0  0  0  0  0  0  0
  -33.2060   18.5340    7.6570 C   0  0  0  0  0  0  0  0  0  0  0  0
  -34.3350   19.2700    8.3220 C   0  0  0  0  0  0  0  0  0  0  0  0
  -34.0650   19.5760    9.8000 C   0  0  0  0  0  0  0  0  0  0  0  0
  -34.7380   20.8650   10.2840 C   0  0  0  0  0  0  0  0  0  0  0  0
  -34.4450   22.0750    9.3900 C   0  0  0  0  0  0  0  0  0  0  0  0
  -33.3560   22.9930    9.9490 C   0  0  0  0  0  0  0  0  0  0  0  0
  -32.3250   23.3500    8.8710 C   0  0  0  0  0  0  0  0  0  0  0  0
  -32.6910   24.6260    8.1140 C   0  0  0  0  0  0  0  0  0  0  0  0
  -33.1680   24.3650    6.7060 C   0  0  0  0  0  0  0  0  0  0  0  0
  -34.3120   24.4950    6.2980 O   0  0  0  0  0  0  0  0  0  0  0  0
  -32.1270   23.9850    5.9230 O   0  0  0  0  0  0  0  0  0  0  0  0
  -37.9528   22.0734    8.4080 H   0  0  0  0  0  0  0  0  0  0  0  0
  -37.4215   22.9708    6.9454 H   0  0  0  0  0  0  0  0  0  0  0  0
  -38.9953   22.1048    6.9454 H   0  0  0  0  0  0  0  0  0  0  0  0
  -36.1823   21.0056    6.7858 H   0  0  0  0  0  0  0  0  0  0  0  0
  -37.5539   20.0028    7.4576 H   0  0  0  0  0  0  0  0  0  0  0  0
  -38.1453   19.4299    5.4146 H   0  0  0  0  0  0  0  0  0  0  0  0
  -38.4177   21.1942    5.0318 H   0  0  0  0  0  0  0  0  0  0  0  0
  -36.3295   19.3744    4.0899 H   0  0  0  0  0  0  0  0  0  0  0  0
  -36.8392   21.0020    3.4881 H   0  0  0  0  0  0  0  0  0  0  0  0
  -35.4366   22.1309    5.0142 H   0  0  0  0  0  0  0  0  0  0  0  0
  -35.1538   20.5559    5.9492 H   0  0  0  0  0  0  0  0  0  0  0  0
  -34.0384   20.8169    3.1413 H   0  0  0  0  0  0  0  0  0  0  0  0
  -31.9320   20.3984    4.0953 H   0  0  0  0  0  0  0  0  0  0  0  0
  -31.5940   21.0367    6.4794 H   0  0  0  0  0  0  0  0  0  0  0  0
  -33.3806   20.9632    6.7706 H   0  0  0  0  0  0  0  0  0  0  0  0
  -31.6027   18.4593    6.3063 H   0  0  0  0  0  0  0  0  0  0  0  0
  -33.0299   17.4863    7.9423 H   0  0  0  0  0  0  0  0  0  0  0  0
  -34.4944   20.2201    7.7911 H   0  0  0  0  0  0  0  0  0  0  0  0
  -35.2214   18.6201    8.2780 H   0  0  0  0  0  0  0  0  0  0  0  0
  -34.4408   18.7374   10.4046 H   0  0  0  0  0  0  0  0  0  0  0  0
  -32.9793   19.7131    9.9117 H   0  0  0  0  0  0  0  0  0  0  0  0
  -35.8258   20.7034   10.3071 H   0  0  0  0  0  0  0  0  0  0  0  0
  -34.3309   21.0904   11.2807 H   0  0  0  0  0  0  0  0  0  0  0  0
  -34.1214   21.7100    8.4041 H   0  0  0  0  0  0  0  0  0  0  0  0
  -35.3702   22.6669    9.3306 H   0  0  0  0  0  0  0  0  0  0  0  0
  -33.8219   23.9177   10.3203 H   0  0  0  0  0  0  0  0  0  0  0  0
  -32.8395   22.4649   10.7640 H   0  0  0  0  0  0  0  0  0  0  0  0
  -31.3462   23.4932    9.3521 H   0  0  0  0  0  0  0  0  0  0  0  0
  -32.3003   22.5246    8.1443 H   0  0  0  0  0  0  0  0  0  0  0  0
  -33.4915   25.1418    8.6645 H   0  0  0  0  0  0  0  0  0  0  0  0
  -31.7791   25.2371    8.0426 H   0  0  0  0  0  0  0  0  0  0  0  0
  1  2  1  0
  2  3  1  0
  3  4  1  0
  4  5  1  0
  5  6  1  0
  6  7  2  0
  7  8  1  0
  8  9  1  0
  9 10  2  0
 10 11  1  0
 11 12  1  0
 12 13  1  0
 13 14  1  0
 14 15  1  0
 15 16  1  0
 16 17  1  0
 17 18  1  0
 18 19  2  0
 18 20  1  0
  1 21  1  0
  1 22  1  0
  1 23  1  0
  2 24  1  0
  2 25  1  0
  3 26  1  0
  3 27  1  0
  4 28  1  0
  4 29  1  0
  5 30  1  0
  5 31  1  0
  6 32  1  0
  7 33  1  0
  8 34  1  0
  8 35  1  0
  9 36  1  0
 10 37  1  0
 11 38  1  0
 11 39  1  0
 12 40  1  0
 12 41  1  0
 13 42  1  0
 13 43  1  0
 14 44  1  0
 14 45  1  0
 15 46  1  0
 15 47  1  0
 16 48  1  0
 16 49  1  0
 17 50  1  0
 17 51  1  0
M  CHG  1  20  -1
M  END
>  <meeko>  (16) 
{"is_sidechain": [false], "free_energy": -6.126, "intermolecular_energy": -11.567, "internal_energy": -2.249}

$$$$
linoleate_Nlobe_run03
     RDKit          3D

 51 50  0  0  0  0  0  0  0  0999 V2000
  -34.1870   19.5380    9.5690 C   0  0  0  0  0  0  0  0  0  0  0  0
  -33.7480   18.9730    8.2270 C   0  0  0  0  0  0  0  0  0  0  0  0
  -32.2630   19.1910    7.9290 C   0  0  0  0  0  0  0  0  0  0  0  0
  -31.7540   18.3630    6.7460 C   0  0  0  0  0  0  0  0  0  0  0  0
  -32.7180   18.4480    5.5560 C   0  0  0  0  0  0  0  0  0  0  0  0
  -32.4230   19.4980    4.5180 C   0  0  0  0  0  0  0  0  0  0  0  0
  -33.0560   20.6690    4.3410 C   0  0  0  0  0  0  0  0  0  0  0  0
  -34.2070   21.1260    5.1900 C   0  0  0  0  0  0  0  0  0  0  0  0
  -35.5240   20.7240    4.5940 C   0  0  0  0  0  0  0  0  0  0  0  0
  -36.6490   20.5690    5.3090 C   0  0  0  0  0  0  0  0  0  0  0  0
  -36.7290   20.7810    6.7940 C   0  0  0  0  0  0  0  0  0  0  0  0
  -37.5560   22.0120    7.1830 C   0  0  0  0  0  0  0  0  0  0  0  0
  -36.7080   23.1620    7.7370 C   0  0  0  0  0  0  0  0  0  0  0  0
  -35.6050   22.6950    8.6930 C   0  0  0  0  0  0  0  0  0  0  0  0
  -34.2990   23.4800    8.5410 C   0  0  0  0  0  0  0  0  0  0  0  0
  -34.2500   24.2160    7.1970 C   0  0  0  0  0  0  0  0  0  0  0  0
  -32.8510   24.7390    6.8700 C   0  0  0  0  0  0  0  0  0  0  0  0
  -31.7490   23.9030    7.4740 C   0  0  0  0  0  0  0  0  0  0  0  0
  -31.4210   22.7810    7.1210 O   0  0  0  0  0  0  0  0  0  0  0  0
  -31.1330   24.5910    8.4690 O   0  0  0  0  0  0  0  0  0  0  0  0
  -33.7314   18.9516   10.3805 H   0  0  0  0  0  0  0  0  0  0  0  0
  -33.8644   20.5866    9.6486 H   0  0  0  0  0  0  0  0  0  0  0  0
  -35.2828   19.4845    9.6486 H   0  0  0  0  0  0  0  0  0  0  0  0
  -33.9490   17.8915    8.2221 H   0  0  0  0  0  0  0  0  0  0  0  0
  -34.3155   19.5065    7.4502 H   0  0  0  0  0  0  0  0  0  0  0  0
  -32.1050   20.2559    7.7033 H   0  0  0  0  0  0  0  0  0  0  0  0
  -31.7017   18.8676    8.8181 H   0  0  0  0  0  0  0  0  0  0  0  0
  -30.7691   18.7441    6.4382 H   0  0  0  0  0  0  0  0  0  0  0  0
  -31.6809   17.3118    7.0615 H   0  0  0  0  0  0  0  0  0  0  0  0
  -32.7115   17.4704    5.0518 H   0  0  0  0  0  0  0  0  0  0  0  0
  -33.6869   18.7360    5.9900 H   0  0  0  0  0  0  0  0  0  0  0  0
  -31.5954   19.2814    3.8265 H   0  0  0  0  0  0  0  0  0  0  0  0
  -32.7129   21.3288    3.5305 H   0  0  0  0  0  0  0  0  0  0  0  0
  -34.1147   20.6758    6.1894 H   0  0  0  0  0  0  0  0  0  0  0  0
  -34.1765   22.2239    5.2505 H   0  0  0  0  0  0  0  0  0  0  0  0
  -35.5700   20.5463    3.5094 H   0  0  0  0  0  0  0  0  0  0  0  0
  -37.5644   20.2698    4.7776 H   0  0  0  0  0  0  0  0  0  0  0  0
  -37.1891   19.8920    7.2501 H   0  0  0  0  0  0  0  0  0  0  0  0
  -35.7039   20.9469    7.1569 H   0  0  0  0  0  0  0  0  0  0  0  0
  -38.0896   22.3703    6.2904 H   0  0  0  0  0  0  0  0  0  0  0  0
  -38.2457   21.7018    7.9818 H   0  0  0  0  0  0  0  0  0  0  0  0
  -36.2387   23.6881    6.8926 H   0  0  0  0  0  0  0  0  0  0  0  0
  -37.3809   23.8166    8.3104 H   0  0  0  0  0  0  0  0  0  0  0  0
  -35.9651   22.8130    9.7257 H   0  0  0  0  0  0  0  0  0  0  0  0
  -35.3846   21.6455    8.4481 H   0  0  0  0  0  0  0  0  0  0  0  0
  -34.2249   24.2151    9.3559 H   0  0  0  0  0  0  0  0  0  0  0  0
  -33.4588   22.7712    8.5817 H   0  0  0  0  0  0  0  0  0  0  0  0
  -34.5625   23.5222    6.4026 H   0  0  0  0  0  0  0  0  0  0  0  0
  -34.9249   25.0821    7.2639 H   0  0  0  0  0  0  0  0  0  0  0  0
  -32.7264   24.7453    5.7771 H   0  0  0  0  0  0  0  0  0  0  0  0
  -32.7698   25.7481    7.3002 H   0  0  0  0  0  0  0  0  0  0  0  0
  1  2  1  0
  2  3  1  0
  3  4  1  0
  4  5  1  0
  5  6  1  0
  6  7  2  0
  7  8  1  0
  8  9  1  0
  9 10  2  0
 10 11  1  0
 11 12  1  0
 12 13  1  0
 13 14  1  0
 14 15  1  0
 15 16  1  0
 16 17  1  0
 17 18  1  0
 18 19  2  0
 18 20  1  0
  1 21  1  0
  1 22  1  0
  1 23  1  0
  2 24  1  0
  2 25  1  0
  3 26  1  0
  3 27  1  0
  4 28  1  0
  4 29  1  0
  5 30  1  0
  5 31  1  0
  6 32  1  0
  7 33  1  0
  8 34  1  0
  8 35  1  0
  9 36  1  0
 10 37  1  0
 11 38  1  0
 11 39  1  0
 12 40  1  0
 12 41  1  0
 13 42  1  0
 13 43  1  0
 14 44  1  0
 14 45  1  0
 15 46  1  0
 15 47  1  0
 16 48  1  0
 16 49  1  0
 17 50  1  0
 17 51  1  0
M  CHG  1  20  -1
M  END
>  <meeko>  (17) 
{"is_sidechain": [false], "free_energy": -6.094, "intermolecular_energy": -11.312, "internal_energy": -2.446}

$$$$
linoleate_Nlobe_run03
     RDKit          3D

 51 50  0  0  0  0  0  0  0  0999 V2000
  -35.6760   24.1240    7.5620 C   0  0  0  0  0  0  0  0  0  0  0  0
  -34.3660   24.1860    6.7930 C   0  0  0  0  0  0  0  0  0  0  0  0
  -33.2600   24.9450    7.5290 C   0  0  0  0  0  0  0  0  0  0  0  0
  -32.0440   24.0750    7.8600 C   0  0  0  0  0  0  0  0  0  0  0  0
  -32.4060   22.9820    8.8740 C   0  0  0  0  0  0  0  0  0  0  0  0
  -33.1510   23.4200   10.1060 C   0  0  0  0  0  0  0  0  0  0  0  0
  -34.0150   22.6970   10.8360 C   0  0  0  0  0  0  0  0  0  0  0  0
  -34.3850   21.2770   10.5160 C   0  0  0  0  0  0  0  0  0  0  0  0
  -35.3340   21.2040    9.3560 C   0  0  0  0  0  0  0  0  0  0  0  0
  -35.1600   20.3950    8.3000 C   0  0  0  0  0  0  0  0  0  0  0  0
  -33.9920   19.4610    8.1490 C   0  0  0  0  0  0  0  0  0  0  0  0
  -33.2850   19.5950    6.7960 C   0  0  0  0  0  0  0  0  0  0  0  0
  -33.5990   20.9110    6.0760 C   0  0  0  0  0  0  0  0  0  0  0  0
  -34.3100   20.7130    4.7330 C   0  0  0  0  0  0  0  0  0  0  0  0
  -35.6680   21.4140    4.6550 C   0  0  0  0  0  0  0  0  0  0  0  0
  -36.8090   20.3980    4.5260 C   0  0  0  0  0  0  0  0  0  0  0  0
  -37.7550   20.4280    5.7260 C   0  0  0  0  0  0  0  0  0  0  0  0
  -39.2120   20.4460    5.3320 C   0  0  0  0  0  0  0  0  0  0  0  0
  -39.6550   20.6930    4.2210 O   0  0  0  0  0  0  0  0  0  0  0  0
  -39.9880   20.1120    6.3960 O   0  0  0  0  0  0  0  0  0  0  0  0
  -35.4679   24.1338    8.6421 H   0  0  0  0  0  0  0  0  0  0  0  0
  -36.2964   24.9938    7.3002 H   0  0  0  0  0  0  0  0  0  0  0  0
  -36.2115   23.1995    7.3002 H   0  0  0  0  0  0  0  0  0  0  0  0
  -34.0205   23.1577    6.6109 H   0  0  0  0  0  0  0  0  0  0  0  0
  -34.5654   24.7315    5.8588 H   0  0  0  0  0  0  0  0  0  0  0  0
  -32.9289   25.7808    6.8951 H   0  0  0  0  0  0  0  0  0  0  0  0
  -33.6825   25.2906    8.4840 H   0  0  0  0  0  0  0  0  0  0  0  0
  -31.6790   23.6016    6.9366 H   0  0  0  0  0  0  0  0  0  0  0  0
  -31.2656   24.7157    8.3001 H   0  0  0  0  0  0  0  0  0  0  0  0
  -33.0293   22.2392    8.3545 H   0  0  0  0  0  0  0  0  0  0  0  0
  -31.4424   22.5990    9.2410 H   0  0  0  0  0  0  0  0  0  0  0  0
  -32.9667   24.4494   10.4471 H   0  0  0  0  0  0  0  0  0  0  0  0
  -34.4766   23.1698   11.7154 H   0  0  0  0  0  0  0  0  0  0  0  0
  -33.4716   20.7172   10.2663 H   0  0  0  0  0  0  0  0  0  0  0  0
  -34.8819   20.8431   11.3962 H   0  0  0  0  0  0  0  0  0  0  0  0
  -36.2235   21.8510    9.3724 H   0  0  0  0  0  0  0  0  0  0  0  0
  -35.9144   20.4164    7.4998 H   0  0  0  0  0  0  0  0  0  0  0  0
  -33.2657   19.6773    8.9463 H   0  0  0  0  0  0  0  0  0  0  0  0
  -34.3826   18.4348    8.2143 H   0  0  0  0  0  0  0  0  0  0  0  0
  -32.1991   19.5384    6.9623 H   0  0  0  0  0  0  0  0  0  0  0  0
  -33.6492   18.7781    6.1556 H   0  0  0  0  0  0  0  0  0  0  0  0
  -34.2447   21.5193    6.7264 H   0  0  0  0  0  0  0  0  0  0  0  0
  -32.6386   21.4046    5.8663 H   0  0  0  0  0  0  0  0  0  0  0  0
  -33.6657   21.1113    3.9353 H   0  0  0  0  0  0  0  0  0  0  0  0
  -34.4943   19.6345    4.6191 H   0  0  0  0  0  0  0  0  0  0  0  0
  -35.8181   22.0083    5.5684 H   0  0  0  0  0  0  0  0  0  0  0  0
  -35.6755   22.0615    3.7658 H   0  0  0  0  0  0  0  0  0  0  0  0
  -37.3844   20.6267    3.6169 H   0  0  0  0  0  0  0  0  0  0  0  0
  -36.3605   19.3947    4.4778 H   0  0  0  0  0  0  0  0  0  0  0  0
  -37.5696   19.5345    6.3402 H   0  0  0  0  0  0  0  0  0  0  0  0
  -37.5536   21.3574    6.2789 H   0  0  0  0  0  0  0  0  0  0  0  0
  1  2  1  0
  2  3  1  0
  3  4  1  0
  4  5  1  0
  5  6  1  0
  6  7  2  0
  7  8  1  0
  8  9  1  0
  9 10  2  0
 10 11  1  0
 11 12  1  0
 12 13  1  0
 13 14  1  0
 14 15  1  0
 15 16  1  0
 16 17  1  0
 17 18  1  0
 18 19  2  0
 18 20  1  0
  1 21  1  0
  1 22  1  0
  1 23  1  0
  2 24  1  0
  2 25  1  0
  3 26  1  0
  3 27  1  0
  4 28  1  0
  4 29  1  0
  5 30  1  0
  5 31  1  0
  6 32  1  0
  7 33  1  0
  8 34  1  0
  8 35  1  0
  9 36  1  0
 10 37  1  0
 11 38  1  0
 11 39  1  0
 12 40  1  0
 12 41  1  0
 13 42  1  0
 13 43  1  0
 14 44  1  0
 14 45  1  0
 15 46  1  0
 15 47  1  0
 16 48  1  0
 16 49  1  0
 17 50  1  0
 17 51  1  0
M  CHG  1  20  -1
M  END
>  <meeko>  (18) 
{"is_sidechain": [false], "free_energy": -6.064, "intermolecular_energy": -11.102, "internal_energy": -2.602}

$$$$
linoleate_Nlobe_run03
     RDKit          3D

 51 50  0  0  0  0  0  0  0  0999 V2000
  -31.9010   25.1470    6.8990 C   0  0  0  0  0  0  0  0  0  0  0  0
  -32.4210   24.7260    8.2650 C   0  0  0  0  0  0  0  0  0  0  0  0
  -33.5560   23.7020    8.1980 C   0  0  0  0  0  0  0  0  0  0  0  0
  -34.7330   24.1560    7.3290 C   0  0  0  0  0  0  0  0  0  0  0  0
  -36.0080   23.3770    7.6740 C   0  0  0  0  0  0  0  0  0  0  0  0
  -35.8330   21.9440    8.1010 C   0  0  0  0  0  0  0  0  0  0  0  0
  -36.7450   20.9610    8.0450 C   0  0  0  0  0  0  0  0  0  0  0  0
  -38.1410   21.1530    7.5260 C   0  0  0  0  0  0  0  0  0  0  0  0
  -38.6460   19.9210    6.8350 C   0  0  0  0  0  0  0  0  0  0  0  0
  -38.6440   19.7600    5.5030 C   0  0  0  0  0  0  0  0  0  0  0  0
  -38.1330   20.7930    4.5390 C   0  0  0  0  0  0  0  0  0  0  0  0
  -36.7580   20.4460    3.9570 C   0  0  0  0  0  0  0  0  0  0  0  0
  -35.5990   21.1290    4.6920 C   0  0  0  0  0  0  0  0  0  0  0  0
  -34.2270   20.5520    4.3270 C   0  0  0  0  0  0  0  0  0  0  0  0
  -33.0980   21.0550    5.2310 C   0  0  0  0  0  0  0  0  0  0  0  0
  -33.1710   20.4070    6.6190 C   0  0  0  0  0  0  0  0  0  0  0  0
  -33.1210   18.8810    6.5530 C   0  0  0  0  0  0  0  0  0  0  0  0
  -31.7650   18.3160    6.9040 C   0  0  0  0  0  0  0  0  0  0  0  0
  -30.9920   17.7700    6.1320 O   0  0  0  0  0  0  0  0  0  0  0  0
  -31.4980   18.5250    8.2180 O   0  0  0  0  0  0  0  0  0  0  0  0
  -31.0518   25.8345    7.0259 H   0  0  0  0  0  0  0  0  0  0  0  0
  -31.5724   24.2574    6.3416 H   0  0  0  0  0  0  0  0  0  0  0  0
  -32.7027   25.6535    6.3416 H   0  0  0  0  0  0  0  0  0  0  0  0
  -31.5886   24.2861    8.8338 H   0  0  0  0  0  0  0  0  0  0  0  0
  -32.8268   25.6271    8.7480 H   0  0  0  0  0  0  0  0  0  0  0  0
  -33.1565   22.7651    7.7825 H   0  0  0  0  0  0  0  0  0  0  0  0
  -33.9382   23.5727    9.2213 H   0  0  0  0  0  0  0  0  0  0  0  0
  -34.9109   25.2284    7.4972 H   0  0  0  0  0  0  0  0  0  0  0  0
  -34.4823   23.9658    6.2750 H   0  0  0  0  0  0  0  0  0  0  0  0
  -36.5117   23.9095    8.4942 H   0  0  0  0  0  0  0  0  0  0  0  0
  -36.5796   23.3300    6.7353 H   0  0  0  0  0  0  0  0  0  0  0  0
  -34.8464   21.6720    8.5044 H   0  0  0  0  0  0  0  0  0  0  0  0
  -36.4542   19.9607    8.3983 H   0  0  0  0  0  0  0  0  0  0  0  0
  -38.8067   21.3877    8.3697 H   0  0  0  0  0  0  0  0  0  0  0  0
  -38.1274   21.9762    6.7966 H   0  0  0  0  0  0  0  0  0  0  0  0
  -39.0404   19.1030    7.4557 H   0  0  0  0  0  0  0  0  0  0  0  0
  -39.0388   18.8185    5.0935 H   0  0  0  0  0  0  0  0  0  0  0  0
  -38.8508   20.8838    3.7105 H   0  0  0  0  0  0  0  0  0  0  0  0
  -38.0245   21.7354    5.0959 H   0  0  0  0  0  0  0  0  0  0  0  0
  -36.6173   19.3568    4.0190 H   0  0  0  0  0  0  0  0  0  0  0  0
  -36.7432   20.8072    2.9181 H   0  0  0  0  0  0  0  0  0  0  0  0
  -35.6066   22.1993    4.4381 H   0  0  0  0  0  0  0  0  0  0  0  0
  -35.7491   20.9578    5.7682 H   0  0  0  0  0  0  0  0  0  0  0  0
  -34.2766   19.4561    4.4074 H   0  0  0  0  0  0  0  0  0  0  0  0
  -33.9965   20.8827    3.3035 H   0  0  0  0  0  0  0  0  0  0  0  0
  -32.1308   20.8071    4.7694 H   0  0  0  0  0  0  0  0  0  0  0  0
  -33.2032   22.1437    5.3480 H   0  0  0  0  0  0  0  0  0  0  0  0
  -32.3211   20.7626    7.2200 H   0  0  0  0  0  0  0  0  0  0  0  0
  -34.1322   20.6917    7.0719 H   0  0  0  0  0  0  0  0  0  0  0  0
  -33.8620   18.4758    7.2578 H   0  0  0  0  0  0  0  0  0  0  0  0
  -33.3380   18.5907    5.5144 H   0  0  0  0  0  0  0  0  0  0  0  0
  1  2  1  0
  2  3  1  0
  3  4  1  0
  4  5  1  0
  5  6  1  0
  6  7  2  0
  7  8  1  0
  8  9  1  0
  9 10  2  0
 10 11  1  0
 11 12  1  0
 12 13  1  0
 13 14  1  0
 14 15  1  0
 15 16  1  0
 16 17  1  0
 17 18  1  0
 18 19  2  0
 18 20  1  0
  1 21  1  0
  1 22  1  0
  1 23  1  0
  2 24  1  0
  2 25  1  0
  3 26  1  0
  3 27  1  0
  4 28  1  0
  4 29  1  0
  5 30  1  0
  5 31  1  0
  6 32  1  0
  7 33  1  0
  8 34  1  0
  8 35  1  0
  9 36  1  0
 10 37  1  0
 11 38  1  0
 11 39  1  0
 12 40  1  0
 12 41  1  0
 13 42  1  0
 13 43  1  0
 14 44  1  0
 14 45  1  0
 15 46  1  0
 15 47  1  0
 16 48  1  0
 16 49  1  0
 17 50  1  0
 17 51  1  0
M  CHG  1  20  -1
M  END
>  <meeko>  (19) 
{"is_sidechain": [false], "free_energy": -6.024, "intermolecular_energy": -11.447, "internal_energy": -2.182}

$$$$
linoleate_Nlobe_run03
     RDKit          3D

 51 50  0  0  0  0  0  0  0  0999 V2000
  -35.7590   20.6980    4.3600 C   0  0  0  0  0  0  0  0  0  0  0  0
  -34.4520   21.3400    4.7980 C   0  0  0  0  0  0  0  0  0  0  0  0
  -33.2140   20.6870    4.1820 C   0  0  0  0  0  0  0  0  0  0  0  0
  -32.7930   19.3960    4.8900 C   0  0  0  0  0  0  0  0  0  0  0  0
  -33.0000   19.5050    6.4060 C   0  0  0  0  0  0  0  0  0  0  0  0
  -31.7690   19.7120    7.2460 C   0  0  0  0  0  0  0  0  0  0  0  0
  -31.2140   20.8810    7.6050 C   0  0  0  0  0  0  0  0  0  0  0  0
  -31.7650   22.2190    7.2000 C   0  0  0  0  0  0  0  0  0  0  0  0
  -31.7940   23.1740    8.3560 C   0  0  0  0  0  0  0  0  0  0  0  0
  -32.3790   24.3810    8.3110 C   0  0  0  0  0  0  0  0  0  0  0  0
  -33.0790   24.9230    7.0970 C   0  0  0  0  0  0  0  0  0  0  0  0
  -34.4430   24.2710    6.8470 C   0  0  0  0  0  0  0  0  0  0  0  0
  -35.0950   23.7210    8.1210 C   0  0  0  0  0  0  0  0  0  0  0  0
  -36.1210   22.6160    7.8480 C   0  0  0  0  0  0  0  0  0  0  0  0
  -35.6260   21.2200    8.2340 C   0  0  0  0  0  0  0  0  0  0  0  0
  -34.8820   21.2480    9.5740 C   0  0  0  0  0  0  0  0  0  0  0  0
  -34.3830   19.8650    9.9940 C   0  0  0  0  0  0  0  0  0  0  0  0
  -34.3520   19.6750   11.4910 C   0  0  0  0  0  0  0  0  0  0  0  0
  -35.1170   20.1810   12.2970 O   0  0  0  0  0  0  0  0  0  0  0  0
  -33.3530   18.8200   11.8320 O   0  0  0  0  0  0  0  0  0  0  0  0
  -36.3423   20.4115    5.2475 H   0  0  0  0  0  0  0  0  0  0  0  0
  -36.3361   21.4152    3.7578 H   0  0  0  0  0  0  0  0  0  0  0  0
  -35.5441   19.8029    3.7578 H   0  0  0  0  0  0  0  0  0  0  0  0
  -34.4692   22.3998    4.5039 H   0  0  0  0  0  0  0  0  0  0  0  0
  -34.3774   21.2101    5.8878 H   0  0  0  0  0  0  0  0  0  0  0  0
  -33.4303   20.4530    3.1292 H   0  0  0  0  0  0  0  0  0  0  0  0
  -32.3837   21.4009    4.2864 H   0  0  0  0  0  0  0  0  0  0  0  0
  -33.3966   18.5613    4.5041 H   0  0  0  0  0  0  0  0  0  0  0  0
  -31.7244   19.2229    4.6948 H   0  0  0  0  0  0  0  0  0  0  0  0
  -33.6746   20.3542    6.5895 H   0  0  0  0  0  0  0  0  0  0  0  0
  -33.3967   18.5261    6.7133 H   0  0  0  0  0  0  0  0  0  0  0  0
  -31.2666   18.8025    7.6071 H   0  0  0  0  0  0  0  0  0  0  0  0
  -30.3081   20.8578    8.2285 H   0  0  0  0  0  0  0  0  0  0  0  0
  -31.1328   22.6400    6.4043 H   0  0  0  0  0  0  0  0  0  0  0  0
  -32.7963   22.0747    6.8455 H   0  0  0  0  0  0  0  0  0  0  0  0
  -31.3081   22.8677    9.2942 H   0  0  0  0  0  0  0  0  0  0  0  0
  -32.3441   25.0088    9.2136 H   0  0  0  0  0  0  0  0  0  0  0  0
  -33.2277   26.0044    7.2326 H   0  0  0  0  0  0  0  0  0  0  0  0
  -32.4448   24.6998    6.2264 H   0  0  0  0  0  0  0  0  0  0  0  0
  -35.1145   25.0236    6.4081 H   0  0  0  0  0  0  0  0  0  0  0  0
  -34.2777   23.4187    6.1716 H   0  0  0  0  0  0  0  0  0  0  0  0
  -34.3055   23.3122    8.7688 H   0  0  0  0  0  0  0  0  0  0  0  0
  -35.6323   24.5540    8.5979 H   0  0  0  0  0  0  0  0  0  0  0  0
  -37.0317   22.8352    8.4247 H   0  0  0  0  0  0  0  0  0  0  0  0
  -36.3084   22.6066    6.7641 H   0  0  0  0  0  0  0  0  0  0  0  0
  -36.4891   20.5431    8.3166 H   0  0  0  0  0  0  0  0  0  0  0  0
  -34.9315   20.8688    7.4566 H   0  0  0  0  0  0  0  0  0  0  0  0
  -34.0179   21.9228    9.4840 H   0  0  0  0  0  0  0  0  0  0  0  0
  -35.5882   21.5967   10.3419 H   0  0  0  0  0  0  0  0  0  0  0  0
  -35.0492   19.1056    9.5587 H   0  0  0  0  0  0  0  0  0  0  0  0
  -33.3499   19.7650    9.6297 H   0  0  0  0  0  0  0  0  0  0  0  0
  1  2  1  0
  2  3  1  0
  3  4  1  0
  4  5  1  0
  5  6  1  0
  6  7  2  0
  7  8  1  0
  8  9  1  0
  9 10  2  0
 10 11  1  0
 11 12  1  0
 12 13  1  0
 13 14  1  0
 14 15  1  0
 15 16  1  0
 16 17  1  0
 17 18  1  0
 18 19  2  0
 18 20  1  0
  1 21  1  0
  1 22  1  0
  1 23  1  0
  2 24  1  0
  2 25  1  0
  3 26  1  0
  3 27  1  0
  4 28  1  0
  4 29  1  0
  5 30  1  0
  5 31  1  0
  6 32  1  0
  7 33  1  0
  8 34  1  0
  8 35  1  0
  9 36  1  0
 10 37  1  0
 11 38  1  0
 11 39  1  0
 12 40  1  0
 12 41  1  0
 13 42  1  0
 13 43  1  0
 14 44  1  0
 14 45  1  0
 15 46  1  0
 15 47  1  0
 16 48  1  0
 16 49  1  0
 17 50  1  0
 17 51  1  0
M  CHG  1  20  -1
M  END
>  <meeko>  (20) 
{"is_sidechain": [false], "free_energy": -6.008, "intermolecular_energy": -11.049, "internal_energy": -2.552}

$$$$
