linoleate_Nlobe_run02
     RDKit          3D

 51 50  0  0  0  0  0  0  0  0999 V2000
  -34.2590   22.1740   10.9490 C   0  0  0  0  0  0  0  0  0  0  0  0
  -34.8380   20.8670   10.4290 C   0  0  0  0  0  0  0  0  0  0  0  0
  -34.6390   20.6660    8.9250 C   0  0  0  0  0  0  0  0  0  0  0  0
  -35.9320   20.8080    8.1180 C   0  0  0  0  0  0  0  0  0  0  0  0
  -35.9020   22.0690    7.2450 C   0  0  0  0  0  0  0  0  0  0  0  0
  -36.0260   23.3890    7.9560 C   0  0  0  0  0  0  0  0  0  0  0  0
  -35.2690   24.4840    7.7800 C   0  0  0  0  0  0  0  0  0  0  0  0
  -34.1300   24.5560    6.8030 C   0  0  0  0  0  0  0  0  0  0  0  0
  -32.8670   25.0250    7.4630 C   0  0  0  0  0  0  0  0  0  0  0  0
  -31.9910   24.2040    8.0620 C   0  0  0  0  0  0  0  0  0  0  0  0
  -32.1650   22.7140    8.1440 C   0  0  0  0  0  0  0  0  0  0  0  0
  -31.3930   21.9570    7.0580 C   0  0  0  0  0  0  0  0  0  0  0  0
  -31.9810   22.1430    5.6550 C   0  0  0  0  0  0  0  0  0  0  0  0
  -33.1980   21.2520    5.3850 C   0  0  0  0  0  0  0  0  0  0  0  0
  -32.9640   20.2250    4.2750 C   0  0  0  0  0  0  0  0  0  0  0  0
  -32.3660   18.9300    4.8360 C   0  0  0  0  0  0  0  0  0  0  0  0
  -32.8930   18.6010    6.2330 C   0  0  0  0  0  0  0  0  0  0  0  0
  -31.7950   18.3250    7.2310 C   0  0  0  0  0  0  0  0  0  0  0  0
  -31.8340   18.5620    8.4290 O   0  0  0  0  0  0  0  0  0  0  0  0
  -30.7400   17.7350    6.6140 O   0  0  0  0  0  0  0  0  0  0  0  0
  -34.2630   22.1649   12.0490 H   0  0  0  0  0  0  0  0  0  0  0  0
  -33.2265   22.2873   10.5870 H   0  0  0  0  0  0  0  0  0  0  0  0
  -34.8688   23.0149   10.5870 H   0  0  0  0  0  0  0  0  0  0  0  0
  -34.3507   20.0352   10.9588 H   0  0  0  0  0  0  0  0  0  0  0  0
  -35.9225   20.8991   10.6101 H   0  0  0  0  0  0  0  0  0  0  0  0
  -33.9188   21.4155    8.5650 H   0  0  0  0  0  0  0  0  0  0  0  0
  -34.2757   19.6380    8.7793 H   0  0  0  0  0  0  0  0  0  0  0  0
  -36.0507   19.9261    7.4714 H   0  0  0  0  0  0  0  0  0  0  0  0
  -36.7751   20.8888    8.8199 H   0  0  0  0  0  0  0  0  0  0  0  0
  -34.9469   22.0733    6.6993 H   0  0  0  0  0  0  0  0  0  0  0  0
  -36.7963   21.9998    6.6083 H   0  0  0  0  0  0  0  0  0  0  0  0
  -36.8278   23.4659    8.7051 H   0  0  0  0  0  0  0  0  0  0  0  0
  -35.4948   25.3757    8.3832 H   0  0  0  0  0  0  0  0  0  0  0  0
  -33.9606   23.5559    6.3774 H   0  0  0  0  0  0  0  0  0  0  0  0
  -34.3960   25.2771    6.0160 H   0  0  0  0  0  0  0  0  0  0  0  0
  -32.6467   26.1027    7.4554 H   0  0  0  0  0  0  0  0  0  0  0  0
  -31.0941   24.6472    8.5192 H   0  0  0  0  0  0  0  0  0  0  0  0
  -31.8093   22.3738    9.1277 H   0  0  0  0  0  0  0  0  0  0  0  0
  -33.2338   22.5003    7.9954 H   0  0  0  0  0  0  0  0  0  0  0  0
  -30.3541   22.3184    7.0519 H   0  0  0  0  0  0  0  0  0  0  0  0
  -31.4577   20.8857    7.2990 H   0  0  0  0  0  0  0  0  0  0  0  0
  -32.2853   23.1938    5.5404 H   0  0  0  0  0  0  0  0  0  0  0  0
  -31.2010   21.8565    4.9342 H   0  0  0  0  0  0  0  0  0  0  0  0
  -33.4486   20.7138    6.3110 H   0  0  0  0  0  0  0  0  0  0  0  0
  -34.0149   21.9094    5.0526 H   0  0  0  0  0  0  0  0  0  0  0  0
  -33.9242   19.9961    3.7895 H   0  0  0  0  0  0  0  0  0  0  0  0
  -32.2549   20.6509    3.5499 H   0  0  0  0  0  0  0  0  0  0  0  0
  -32.6199   18.1014    4.1586 H   0  0  0  0  0  0  0  0  0  0  0  0
  -31.2776   19.0693    4.9128 H   0  0  0  0  0  0  0  0  0  0  0  0
  -33.4867   19.4542    6.5929 H   0  0  0  0  0  0  0  0  0  0  0  0
  -33.4965   17.6853    6.1483 H   0  0  0  0  0  0  0  0  0  0  0  0
  1  2  1  0
  2  3  1  0
  3  4  1  0
  4  5  1  0
  5  6  1  0
  6  7  2  0
  7  8  1  0
  8  9  1  0
  9 10  2  0
 10 11  1  0
 11 12  1  0
 12 13  1  0
 13 14  1  0
 14 15  1  0
 15 16  1  0
 16 17  1  0
 17 18  1  0
 18 19  2  0
 18 20  1  0
  1 21  1  0
  1 22  1  0
  1 23  1  0
  2 24  1  0
  2 25  1  0
  3 26  1  0
  3 27  1  0
  4 28  1  0
  4 29  1  0
  5 30  1  0
  5 31  1  0
  6 32  1  0
  7 33  1  0
  8 34  1  0
  8 35  1  0
  9 36  1  0
 10 37  1  0
 11 38  1  0
 11 39  1  0
 12 40  1  0
 12 41  1  0
 13 42  1  0
 13 43  1  0
 14 44  1  0
 14 45  1  0
 15 46  1  0
 15 47  1  0
 16 48  1  0
 16 49  1  0
 17 50  1  0
 17 51  1  0
M  CHG  1  20  -1
M  END
>  <meeko>  (1) 
{"is_sidechain": [false], "free_energy": -6.63, "intermolecular_energy": -12.056, "internal_energy": -2.511}

$$$$
linoleate_Nlobe_run02
     RDKit          3D

 51 50  0  0  0  0  0  0  0  0999 V2000
  -34.7680   20.8780   10.7820 C   0  0  0  0  0  0  0  0  0  0  0  0
  -34.4160   22.1230    9.9830 C   0  0  0  0  0  0  0  0  0  0  0  0
  -35.1140   22.1940    8.6230 C   0  0  0  0  0  0  0  0  0  0  0  0
  -35.4960   23.6190    8.2100 C   0  0  0  0  0  0  0  0  0  0  0  0
  -34.7300   24.0540    6.9550 C   0  0  0  0  0  0  0  0  0  0  0  0
  -33.4220   24.7670    7.1710 C   0  0  0  0  0  0  0  0  0  0  0  0
  -32.1890   24.3060    6.9080 C   0  0  0  0  0  0  0  0  0  0  0  0
  -31.9180   22.9440    6.3340 C   0  0  0  0  0  0  0  0  0  0  0  0
  -31.6820   21.9290    7.4130 C   0  0  0  0  0  0  0  0  0  0  0  0
  -31.9400   20.6200    7.2750 C   0  0  0  0  0  0  0  0  0  0  0  0
  -32.4970   20.0090    6.0210 C   0  0  0  0  0  0  0  0  0  0  0  0
  -34.0300   20.0170    5.9760 C   0  0  0  0  0  0  0  0  0  0  0  0
  -34.5980   20.8210    4.8020 C   0  0  0  0  0  0  0  0  0  0  0  0
  -36.0120   21.3540    5.0590 C   0  0  0  0  0  0  0  0  0  0  0  0
  -37.1100   20.4750    4.4550 C   0  0  0  0  0  0  0  0  0  0  0  0
  -38.1720   20.1190    5.5030 C   0  0  0  0  0  0  0  0  0  0  0  0
  -38.0840   21.0030    6.7460 C   0  0  0  0  0  0  0  0  0  0  0  0
  -39.4340   21.4410    7.2590 C   0  0  0  0  0  0  0  0  0  0  0  0
  -39.9910   22.4990    7.0090 O   0  0  0  0  0  0  0  0  0  0  0  0
  -39.9780   20.4670    8.0330 O   0  0  0  0  0  0  0  0  0  0  0  0
  -34.7046   21.1022   11.8570 H   0  0  0  0  0  0  0  0  0  0  0  0
  -35.7913   20.5600   10.5335 H   0  0  0  0  0  0  0  0  0  0  0  0
  -34.0627   20.0713   10.5335 H   0  0  0  0  0  0  0  0  0  0  0  0
  -34.7065   23.0069   10.5699 H   0  0  0  0  0  0  0  0  0  0  0  0
  -33.3337   22.0876    9.7894 H   0  0  0  0  0  0  0  0  0  0  0  0
  -34.4371   21.7796    7.8614 H   0  0  0  0  0  0  0  0  0  0  0  0
  -36.0476   21.6182    8.7062 H   0  0  0  0  0  0  0  0  0  0  0  0
  -36.5757   23.6557    8.0027 H   0  0  0  0  0  0  0  0  0  0  0  0
  -35.2367   24.3024    9.0320 H   0  0  0  0  0  0  0  0  0  0  0  0
  -34.5228   23.1510    6.3620 H   0  0  0  0  0  0  0  0  0  0  0  0
  -35.3811   24.7905    6.4614 H   0  0  0  0  0  0  0  0  0  0  0  0
  -33.4835   25.7813    7.5923 H   0  0  0  0  0  0  0  0  0  0  0  0
  -31.3314   24.9601    7.1242 H   0  0  0  0  0  0  0  0  0  0  0  0
  -32.7840   22.6311    5.7323 H   0  0  0  0  0  0  0  0  0  0  0  0
  -31.0115   23.0052    5.7139 H   0  0  0  0  0  0  0  0  0  0  0  0
  -31.2738   22.2784    8.3728 H   0  0  0  0  0  0  0  0  0  0  0  0
  -31.7321   19.9570    8.1277 H   0  0  0  0  0  0  0  0  0  0  0  0
  -32.1187   20.5760    5.1576 H   0  0  0  0  0  0  0  0  0  0  0  0
  -32.1742   18.9577    5.9976 H   0  0  0  0  0  0  0  0  0  0  0  0
  -34.3821   18.9784    5.8906 H   0  0  0  0  0  0  0  0  0  0  0  0
  -34.3804   20.4990    6.9006 H   0  0  0  0  0  0  0  0  0  0  0  0
  -33.9325   21.6755    4.6097 H   0  0  0  0  0  0  0  0  0  0  0  0
  -34.6584   20.1401    3.9402 H   0  0  0  0  0  0  0  0  0  0  0  0
  -36.1706   21.4130    6.1459 H   0  0  0  0  0  0  0  0  0  0  0  0
  -36.0813   22.3397    4.5756 H   0  0  0  0  0  0  0  0  0  0  0  0
  -37.5899   21.0178    3.6273 H   0  0  0  0  0  0  0  0  0  0  0  0
  -36.6514   19.5433    4.0922 H   0  0  0  0  0  0  0  0  0  0  0  0
  -39.1679   20.2416    5.0523 H   0  0  0  0  0  0  0  0  0  0  0  0
  -37.9968   19.0797    5.8179 H   0  0  0  0  0  0  0  0  0  0  0  0
  -37.5737   20.4393    7.5409 H   0  0  0  0  0  0  0  0  0  0  0  0
  -37.5306   21.9108    6.4638 H   0  0  0  0  0  0  0  0  0  0  0  0
  1  2  1  0
  2  3  1  0
  3  4  1  0
  4  5  1  0
  5  6  1  0
  6  7  2  0
  7  8  1  0
  8  9  1  0
  9 10  2  0
 10 11  1  0
 11 12  1  0
 12 13  1  0
 13 14  1  0
 14 15  1  0
 15 16  1  0
 16 17  1  0
 17 18  1  0
 18 19  2  0
 18 20  1  0
  1 21  1  0
  1 22  1  0
  1 23  1  0
  2 24  1  0
  2 25  1  0
  3 26  1  0
  3 27  1  0
  4 28  1  0
  4 29  1  0
  5 30  1  0
  5 31  1  0
  6 32  1  0
  7 33  1  0
  8 34  1  0
  8 35  1  0
  9 36  1  0
 10 37  1  0
 11 38  1  0
 11 39  1  0
 12 40  1  0
 12 41  1  0
 13 42  1  0
 13 43  1  0
 14 44  1  0
 14 45  1  0
 15 46  1  0
 15 47  1  0
 16 48  1  0
 16 49  1  0
 17 50  1  0
 17 51  1  0
M  CHG  1  20  -1
M  END
>  <meeko>  (2) 
{"is_sidechain": [false], "free_energy": -6.584, "intermolecular_energy": -11.875, "internal_energy": -2.609}

$$$$
linoleate_Nlobe_run02
     RDKit          3D

 51 50  0  0  0  0  0  0  0  0999 V2000
  -37.6840   20.7300    7.2060 C   0  0  0  0  0  0  0  0  0  0  0  0
  -36.8450   21.9520    6.8630 C   0  0  0  0  0  0  0  0  0  0  0  0
  -37.1370   23.1630    7.7510 C   0  0  0  0  0  0  0  0  0  0  0  0
  -35.9780   24.1610    7.8170 C   0  0  0  0  0  0  0  0  0  0  0  0
  -34.8450   23.7560    6.8650 C   0  0  0  0  0  0  0  0  0  0  0  0
  -33.5400   24.4900    7.0130 C   0  0  0  0  0  0  0  0  0  0  0  0
  -32.5100   24.1690    7.8110 C   0  0  0  0  0  0  0  0  0  0  0  0
  -32.5080   22.9730    8.7210 C   0  0  0  0  0  0  0  0  0  0  0  0
  -33.0490   23.3130   10.0780 C   0  0  0  0  0  0  0  0  0  0  0  0
  -34.0750   22.6680   10.6540 C   0  0  0  0  0  0  0  0  0  0  0  0
  -34.8070   21.5240   10.0120 C   0  0  0  0  0  0  0  0  0  0  0  0
  -34.3360   20.1530   10.5110 C   0  0  0  0  0  0  0  0  0  0  0  0
  -33.8360   19.2390    9.3870 C   0  0  0  0  0  0  0  0  0  0  0  0
  -34.1260   19.7870    7.9850 C   0  0  0  0  0  0  0  0  0  0  0  0
  -33.4240   19.0060    6.8720 C   0  0  0  0  0  0  0  0  0  0  0  0
  -32.3640   19.8680    6.1750 C   0  0  0  0  0  0  0  0  0  0  0  0
  -32.9650   21.0980    5.4970 C   0  0  0  0  0  0  0  0  0  0  0  0
  -33.7650   20.7620    4.2610 C   0  0  0  0  0  0  0  0  0  0  0  0
  -34.9800   20.6640    4.1950 O   0  0  0  0  0  0  0  0  0  0  0  0
  -32.9360   20.6090    3.1970 O   0  0  0  0  0  0  0  0  0  0  0  0
  -37.7539   20.6283    8.2991 H   0  0  0  0  0  0  0  0  0  0  0  0
  -38.6928   20.8475    6.7835 H   0  0  0  0  0  0  0  0  0  0  0  0
  -37.2119   19.8308    6.7835 H   0  0  0  0  0  0  0  0  0  0  0  0
  -35.7831   21.6872    6.9738 H   0  0  0  0  0  0  0  0  0  0  0  0
  -37.0987   22.2389    5.8318 H   0  0  0  0  0  0  0  0  0  0  0  0
  -38.0218   23.6818    7.3536 H   0  0  0  0  0  0  0  0  0  0  0  0
  -37.3000   22.7861    8.7715 H   0  0  0  0  0  0  0  0  0  0  0  0
  -36.3460   25.1581    7.5337 H   0  0  0  0  0  0  0  0  0  0  0  0
  -35.5842   24.1715    8.8440 H   0  0  0  0  0  0  0  0  0  0  0  0
  -34.6447   22.6859    7.0223 H   0  0  0  0  0  0  0  0  0  0  0  0
  -35.2080   24.0139    5.8592 H   0  0  0  0  0  0  0  0  0  0  0  0
  -33.4161   25.3927    6.3968 H   0  0  0  0  0  0  0  0  0  0  0  0
  -31.6201   24.8155    7.7984 H   0  0  0  0  0  0  0  0  0  0  0  0
  -33.1314   22.1838    8.2753 H   0  0  0  0  0  0  0  0  0  0  0  0
  -31.4690   22.6317    8.8396 H   0  0  0  0  0  0  0  0  0  0  0  0
  -32.5779   24.1380   10.6325 H   0  0  0  0  0  0  0  0  0  0  0  0
  -34.3985   22.9955   11.6530 H   0  0  0  0  0  0  0  0  0  0  0  0
  -35.8798   21.6271   10.2322 H   0  0  0  0  0  0  0  0  0  0  0  0
  -34.6022   21.5682    8.9321 H   0  0  0  0  0  0  0  0  0  0  0  0
  -33.5161   20.3051   11.2284 H   0  0  0  0  0  0  0  0  0  0  0  0
  -35.2033   19.6582   10.9725 H   0  0  0  0  0  0  0  0  0  0  0  0
  -32.7483   19.1154    9.4954 H   0  0  0  0  0  0  0  0  0  0  0  0
  -34.3733   18.2838    9.4808 H   0  0  0  0  0  0  0  0  0  0  0  0
  -35.2113   19.7435    7.8109 H   0  0  0  0  0  0  0  0  0  0  0  0
  -33.7415   20.8171    7.9522 H   0  0  0  0  0  0  0  0  0  0  0  0
  -32.9375   18.1204    7.3067 H   0  0  0  0  0  0  0  0  0  0  0  0
  -34.1764   18.7079    6.1269 H   0  0  0  0  0  0  0  0  0  0  0  0
  -31.6311   20.2010    6.9247 H   0  0  0  0  0  0  0  0  0  0  0  0
  -31.8924   19.2526    5.3947 H   0  0  0  0  0  0  0  0  0  0  0  0
  -33.6264   21.6052    6.2148 H   0  0  0  0  0  0  0  0  0  0  0  0
  -32.1291   21.7400    5.1820 H   0  0  0  0  0  0  0  0  0  0  0  0
  1  2  1  0
  2  3  1  0
  3  4  1  0
  4  5  1  0
  5  6  1  0
  6  7  2  0
  7  8  1  0
  8  9  1  0
  9 10  2  0
 10 11  1  0
 11 12  1  0
 12 13  1  0
 13 14  1  0
 14 15  1  0
 15 16  1  0
 16 17  1  0
 17 18  1  0
 18 19  2  0
 18 20  1  0
  1 21  1  0
  1 22  1  0
  1 23  1  0
  2 24  1  0
  2 25  1  0
  3 26  1  0
  3 27  1  0
  4 28  1  0
  4 29  1  0
  5 30  1  0
  5 31  1  0
  6 32  1  0
  7 33  1  0
  8 34  1  0
  8 35  1  0
  9 36  1  0
 10 37  1  0
 11 38  1  0
 11 39  1  0
 12 40  1  0
 12 41  1  0
 13 42  1  0
 13 43  1  0
 14 44  1  0
 14 45  1  0
 15 46  1  0
 15 47  1  0
 16 48  1  0
 16 49  1  0
 17 50  1  0
 17 51  1  0
M  CHG  1  20  -1
M  END
>  <meeko>  (3) 
{"is_sidechain": [false], "free_energy": -6.507, "intermolecular_energy": -11.338, "internal_energy": -3.005}

$$$$
linoleate_Nlobe_run02
     RDKit          3D

 51 50  0  0  0  0  0  0  0  0999 V2000
  -32.9570   24.9540    6.9270 C   0  0  0  0  0  0  0  0  0  0  0  0
  -31.8730   24.6390    7.9460 C   0  0  0  0  0  0  0  0  0  0  0  0
  -32.2030   23.4400    8.8380 C   0  0  0  0  0  0  0  0  0  0  0  0
  -33.6980   23.1110    8.8830 C   0  0  0  0  0  0  0  0  0  0  0  0
  -34.0330   22.2310   10.0930 C   0  0  0  0  0  0  0  0  0  0  0  0
  -34.9800   21.0850    9.8580 C   0  0  0  0  0  0  0  0  0  0  0  0
  -34.7010   19.9000    9.2920 C   0  0  0  0  0  0  0  0  0  0  0  0
  -33.3380   19.5240    8.7850 C   0  0  0  0  0  0  0  0  0  0  0  0
  -33.4250   18.6660    7.5580 C   0  0  0  0  0  0  0  0  0  0  0  0
  -33.0450   19.0710    6.3370 C   0  0  0  0  0  0  0  0  0  0  0  0
  -32.4840   20.4340    6.0470 C   0  0  0  0  0  0  0  0  0  0  0  0
  -33.5060   21.3830    5.4110 C   0  0  0  0  0  0  0  0  0  0  0  0
  -34.6680   20.6530    4.7290 C   0  0  0  0  0  0  0  0  0  0  0  0
  -36.0430   21.2170    5.1040 C   0  0  0  0  0  0  0  0  0  0  0  0
  -36.0490   21.9590    6.4430 C   0  0  0  0  0  0  0  0  0  0  0  0
  -37.4040   21.8190    7.1470 C   0  0  0  0  0  0  0  0  0  0  0  0
  -37.9460   20.3910    7.0890 C   0  0  0  0  0  0  0  0  0  0  0  0
  -39.4200   20.3290    6.7660 C   0  0  0  0  0  0  0  0  0  0  0  0
  -40.3270   20.1710    7.5690 O   0  0  0  0  0  0  0  0  0  0  0  0
  -39.6130   20.5050    5.4340 O   0  0  0  0  0  0  0  0  0  0  0  0
  -33.8857   25.2239    7.4511 H   0  0  0  0  0  0  0  0  0  0  0  0
  -32.6341   25.7955    6.2964 H   0  0  0  0  0  0  0  0  0  0  0  0
  -33.1353   24.0705    6.2964 H   0  0  0  0  0  0  0  0  0  0  0  0
  -30.9392   24.4244    7.4057 H   0  0  0  0  0  0  0  0  0  0  0  0
  -31.7826   25.5161    8.6036 H   0  0  0  0  0  0  0  0  0  0  0  0
  -31.6636   22.5611    8.4551 H   0  0  0  0  0  0  0  0  0  0  0  0
  -31.8963   23.7015    9.8615 H   0  0  0  0  0  0  0  0  0  0  0  0
  -34.2702   24.0480    8.9507 H   0  0  0  0  0  0  0  0  0  0  0  0
  -33.9627   22.5618    7.9674 H   0  0  0  0  0  0  0  0  0  0  0  0
  -33.0891   21.8105   10.4701 H   0  0  0  0  0  0  0  0  0  0  0  0
  -34.5554   22.8961   10.7964 H   0  0  0  0  0  0  0  0  0  0  0  0
  -36.0187   21.2355   10.1874 H   0  0  0  0  0  0  0  0  0  0  0  0
  -35.5138   19.1653    9.1943 H   0  0  0  0  0  0  0  0  0  0  0  0
  -32.7819   20.4412    8.5410 H   0  0  0  0  0  0  0  0  0  0  0  0
  -32.8236   18.9512    9.5707 H   0  0  0  0  0  0  0  0  0  0  0  0
  -33.8232   17.6463    7.6655 H   0  0  0  0  0  0  0  0  0  0  0  0
  -33.1502   18.3647    5.5003 H   0  0  0  0  0  0  0  0  0  0  0  0
  -32.1355   20.8772    6.9915 H   0  0  0  0  0  0  0  0  0  0  0  0
  -31.6641   20.3041    5.3252 H   0  0  0  0  0  0  0  0  0  0  0  0
  -33.9158   22.0331    6.1980 H   0  0  0  0  0  0  0  0  0  0  0  0
  -32.9793   21.9555    4.6333 H   0  0  0  0  0  0  0  0  0  0  0  0
  -34.5416   20.7371    3.6395 H   0  0  0  0  0  0  0  0  0  0  0  0
  -34.6409   19.6077    5.0704 H   0  0  0  0  0  0  0  0  0  0  0  0
  -36.3602   21.9160    4.3161 H   0  0  0  0  0  0  0  0  0  0  0  0
  -36.7295   20.3631    5.2019 H   0  0  0  0  0  0  0  0  0  0  0  0
  -35.2636   21.5399    7.0892 H   0  0  0  0  0  0  0  0  0  0  0  0
  -35.8641   23.0263    6.2513 H   0  0  0  0  0  0  0  0  0  0  0  0
  -37.2860   22.1095    8.2014 H   0  0  0  0  0  0  0  0  0  0  0  0
  -38.1211   22.4713    6.6270 H   0  0  0  0  0  0  0  0  0  0  0  0
  -37.3944   19.8385    6.3142 H   0  0  0  0  0  0  0  0  0  0  0  0
  -37.8101   19.9480    8.0867 H   0  0  0  0  0  0  0  0  0  0  0  0
  1  2  1  0
  2  3  1  0
  3  4  1  0
  4  5  1  0
  5  6  1  0
  6  7  2  0
  7  8  1  0
  8  9  1  0
  9 10  2  0
 10 11  1  0
 11 12  1  0
 12 13  1  0
 13 14  1  0
 14 15  1  0
 15 16  1  0
 16 17  1  0
 17 18  1  0
 18 19  2  0
 18 20  1  0
  1 21  1  0
  1 22  1  0
  1 23  1  0
  2 24  1  0
  2 25  1  0
  3 26  1  0
  3 27  1  0
  4 28  1  0
  4 29  1  0
  5 30  1  0
  5 31  1  0
  6 32  1  0
  7 33  1  0
  8 34  1  0
  8 35  1  0
  9 36  1  0
 10 37  1  0
 11 38  1  0
 11 39  1  0
 12 40  1  0
 12 41  1  0
 13 42  1  0
 13 43  1  0
 14 44  1  0
 14 45  1  0
 15 46  1  0
 15 47  1  0
 16 48  1  0
 16 49  1  0
 17 50  1  0
 17 51  1  0
M  CHG  1  20  -1
M  END
>  <meeko>  (4) 
{"is_sidechain": [false], "free_energy": -6.484, "intermolecular_energy": -11.518, "internal_energy": -2.783}

$$$$
linoleate_Nlobe_run02
     RDKit          3D

 51 50  0  0  0  0  0  0  0  0999 V2000
  -39.5970   22.1470    7.3620 C   0  0  0  0  0  0  0  0  0  0  0  0
  -39.3540   20.6750    7.6580 C   0  0  0  0  0  0  0  0  0  0  0  0
  -38.9560   19.8610    6.4240 C   0  0  0  0  0  0  0  0  0  0  0  0
  -38.1690   20.6730    5.3910 C   0  0  0  0  0  0  0  0  0  0  0  0
  -36.6580   20.4860    5.5750 C   0  0  0  0  0  0  0  0  0  0  0  0
  -35.8060   21.7230    5.4870 C   0  0  0  0  0  0  0  0  0  0  0  0
  -35.5390   22.6000    6.4680 C   0  0  0  0  0  0  0  0  0  0  0  0
  -36.0790   22.4720    7.8640 C   0  0  0  0  0  0  0  0  0  0  0  0
  -35.2700   21.5090    8.6810 C   0  0  0  0  0  0  0  0  0  0  0  0
  -34.2310   21.8720    9.4480 C   0  0  0  0  0  0  0  0  0  0  0  0
  -33.7510   23.2890    9.5850 C   0  0  0  0  0  0  0  0  0  0  0  0
  -32.3670   23.5180    8.9650 C   0  0  0  0  0  0  0  0  0  0  0  0
  -32.4250   24.1380    7.5650 C   0  0  0  0  0  0  0  0  0  0  0  0
  -31.9210   23.1980    6.4650 C   0  0  0  0  0  0  0  0  0  0  0  0
  -31.7500   21.7510    6.9340 C   0  0  0  0  0  0  0  0  0  0  0  0
  -32.4090   20.7700    5.9560 C   0  0  0  0  0  0  0  0  0  0  0  0
  -32.9320   19.5150    6.6520 C   0  0  0  0  0  0  0  0  0  0  0  0
  -31.8300   18.6000    7.1320 C   0  0  0  0  0  0  0  0  0  0  0  0
  -31.4390   18.4870    8.2830 O   0  0  0  0  0  0  0  0  0  0  0  0
  -31.3380   17.8780    6.0940 O   0  0  0  0  0  0  0  0  0  0  0  0
  -39.6885   22.7010    8.3079 H   0  0  0  0  0  0  0  0  0  0  0  0
  -38.7530   22.5486    6.7820 H   0  0  0  0  0  0  0  0  0  0  0  0
  -40.5253   22.2560    6.7820 H   0  0  0  0  0  0  0  0  0  0  0  0
  -38.5465   20.5980    8.4010 H   0  0  0  0  0  0  0  0  0  0  0  0
  -40.3027   20.2587    8.0278 H   0  0  0  0  0  0  0  0  0  0  0  0
  -38.3341   19.0142    6.7499 H   0  0  0  0  0  0  0  0  0  0  0  0
  -39.8857   19.5295    5.9384 H   0  0  0  0  0  0  0  0  0  0  0  0
  -38.4517   20.3400    4.3815 H   0  0  0  0  0  0  0  0  0  0  0  0
  -38.4081   21.7379    5.5285 H   0  0  0  0  0  0  0  0  0  0  0  0
  -36.4962   20.0403    6.5676 H   0  0  0  0  0  0  0  0  0  0  0  0
  -36.3407   19.8570    4.7302 H   0  0  0  0  0  0  0  0  0  0  0  0
  -35.3502   21.9326    4.5081 H   0  0  0  0  0  0  0  0  0  0  0  0
  -34.8903   23.4579    6.2372 H   0  0  0  0  0  0  0  0  0  0  0  0
  -36.0551   23.4594    8.3483 H   0  0  0  0  0  0  0  0  0  0  0  0
  -37.1090   22.0908    7.8017 H   0  0  0  0  0  0  0  0  0  0  0  0
  -35.5443   20.4442    8.6495 H   0  0  0  0  0  0  0  0  0  0  0  0
  -33.7006   21.0879   10.0082 H   0  0  0  0  0  0  0  0  0  0  0  0
  -34.4724   23.9528    9.0859 H   0  0  0  0  0  0  0  0  0  0  0  0
  -33.6684   23.5048   10.6605 H   0  0  0  0  0  0  0  0  0  0  0  0
  -31.7973   24.1918    9.6219 H   0  0  0  0  0  0  0  0  0  0  0  0
  -31.8876   22.5330    8.8654 H   0  0  0  0  0  0  0  0  0  0  0  0
  -33.4689   24.4055    7.3445 H   0  0  0  0  0  0  0  0  0  0  0  0
  -31.7643   25.0174    7.5703 H   0  0  0  0  0  0  0  0  0  0  0  0
  -32.6434   23.2128    5.6356 H   0  0  0  0  0  0  0  0  0  0  0  0
  -30.9285   23.5596    6.1580 H   0  0  0  0  0  0  0  0  0  0  0  0
  -30.6766   21.5210    7.0044 H   0  0  0  0  0  0  0  0  0  0  0  0
  -32.2347   21.6431    7.9156 H   0  0  0  0  0  0  0  0  0  0  0  0
  -33.2511   21.2765    5.4617 H   0  0  0  0  0  0  0  0  0  0  0  0
  -31.6443   20.4563    5.2302 H   0  0  0  0  0  0  0  0  0  0  0  0
  -33.5351   19.8214    7.5194 H   0  0  0  0  0  0  0  0  0  0  0  0
  -33.5254   18.9545    5.9146 H   0  0  0  0  0  0  0  0  0  0  0  0
  1  2  1  0
  2  3  1  0
  3  4  1  0
  4  5  1  0
  5  6  1  0
  6  7  2  0
  7  8  1  0
  8  9  1  0
  9 10  2  0
 10 11  1  0
 11 12  1  0
 12 13  1  0
 13 14  1  0
 14 15  1  0
 15 16  1  0
 16 17  1  0
 17 18  1  0
 18 19  2  0
 18 20  1  0
  1 21  1  0
  1 22  1  0
  1 23  1  0
  2 24  1  0
  2 25  1  0
  3 26  1  0
  3 27  1  0
  4 28  1  0
  4 29  1  0
  5 30  1  0
  5 31  1  0
  6 32  1  0
  7 33  1  0
  8 34  1  0
  8 35  1  0
  9 36  1  0
 10 37  1  0
 11 38  1  0
 11 39  1  0
 12 40  1  0
 12 41  1  0
 13 42  1  0
 13 43  1  0
 14 44  1  0
 14 45  1  0
 15 46  1  0
 15 47  1  0
 16 48  1  0
 16 49  1  0
 17 50  1  0
 17 51  1  0
M  CHG  1  20  -1
M  END
>  <meeko>  (5) 
{"is_sidechain": [false], "free_energy": -6.393, "intermolecular_energy": -11.289, "internal_energy": -2.846}

$$$$
linoleate_Nlobe_run02
     RDKit          3D

 51 50  0  0  0  0  0  0  0  0999 V2000
  -31.7760   23.0620    5.9470 C   0  0  0  0  0  0  0  0  0  0  0  0
  -32.8970   23.9330    6.4930 C   0  0  0  0  0  0  0  0  0  0  0  0
  -32.4010   25.1190    7.3220 C   0  0  0  0  0  0  0  0  0  0  0  0
  -32.0920   24.7540    8.7770 C   0  0  0  0  0  0  0  0  0  0  0  0
  -32.4220   23.2840    9.0610 C   0  0  0  0  0  0  0  0  0  0  0  0
  -33.4740   23.0140   10.1030 C   0  0  0  0  0  0  0  0  0  0  0  0
  -34.6410   22.3720    9.9360 C   0  0  0  0  0  0  0  0  0  0  0  0
  -35.0930   21.8020    8.6210 C   0  0  0  0  0  0  0  0  0  0  0  0
  -36.1380   22.6650    7.9780 C   0  0  0  0  0  0  0  0  0  0  0  0
  -37.0730   22.2000    7.1360 C   0  0  0  0  0  0  0  0  0  0  0  0
  -37.1900   20.7570    6.7340 C   0  0  0  0  0  0  0  0  0  0  0  0
  -37.4280   20.5690    5.2310 C   0  0  0  0  0  0  0  0  0  0  0  0
  -36.1730   20.8030    4.3840 C   0  0  0  0  0  0  0  0  0  0  0  0
  -34.8700   20.5340    5.1430 C   0  0  0  0  0  0  0  0  0  0  0  0
  -33.6450   20.4350    4.2310 C   0  0  0  0  0  0  0  0  0  0  0  0
  -32.5180   19.6410    4.9020 C   0  0  0  0  0  0  0  0  0  0  0  0
  -32.7230   19.4980    6.4090 C   0  0  0  0  0  0  0  0  0  0  0  0
  -31.7430   18.5480    7.0540 C   0  0  0  0  0  0  0  0  0  0  0  0
  -31.5400   18.4250    8.2520 O   0  0  0  0  0  0  0  0  0  0  0  0
  -31.1200   17.8040    6.1040 O   0  0  0  0  0  0  0  0  0  0  0  0
  -31.2118   22.6236    6.7833 H   0  0  0  0  0  0  0  0  0  0  0  0
  -32.2038   22.2570    5.3314 H   0  0  0  0  0  0  0  0  0  0  0  0
  -31.1017   23.6755    5.3314 H   0  0  0  0  0  0  0  0  0  0  0  0
  -33.4807   24.3209    5.6452 H   0  0  0  0  0  0  0  0  0  0  0  0
  -33.5005   23.3014    7.1615 H   0  0  0  0  0  0  0  0  0  0  0  0
  -31.4837   25.5102    6.8578 H   0  0  0  0  0  0  0  0  0  0  0  0
  -33.2084   25.8658    7.3379 H   0  0  0  0  0  0  0  0  0  0  0  0
  -31.0230   24.9259    8.9709 H   0  0  0  0  0  0  0  0  0  0  0  0
  -32.7109   25.3834    9.4334 H   0  0  0  0  0  0  0  0  0  0  0  0
  -32.7634   22.8314    8.1183 H   0  0  0  0  0  0  0  0  0  0  0  0
  -31.4953   22.8545    9.4694 H   0  0  0  0  0  0  0  0  0  0  0  0
  -33.2625   23.3850   11.1167 H   0  0  0  0  0  0  0  0  0  0  0  0
  -35.3016   22.2570   10.8080 H   0  0  0  0  0  0  0  0  0  0  0  0
  -34.2268   21.7274    7.9471 H   0  0  0  0  0  0  0  0  0  0  0  0
  -35.5309   20.8102    8.8069 H   0  0  0  0  0  0  0  0  0  0  0  0
  -36.1375   23.7402    8.2101 H   0  0  0  0  0  0  0  0  0  0  0  0
  -37.7950   22.9157    6.7160 H   0  0  0  0  0  0  0  0  0  0  0  0
  -36.2583   20.2405    7.0083 H   0  0  0  0  0  0  0  0  0  0  0  0
  -38.0620   20.3398    7.2590 H   0  0  0  0  0  0  0  0  0  0  0  0
  -37.7783   19.5405    5.0591 H   0  0  0  0  0  0  0  0  0  0  0  0
  -38.1727   21.3178    4.9232 H   0  0  0  0  0  0  0  0  0  0  0  0
  -36.2121   20.1357    3.5104 H   0  0  0  0  0  0  0  0  0  0  0  0
  -36.1684   21.8645    4.0954 H   0  0  0  0  0  0  0  0  0  0  0  0
  -34.7072   21.3540    5.8579 H   0  0  0  0  0  0  0  0  0  0  0  0
  -34.9811   19.5613    5.6445 H   0  0  0  0  0  0  0  0  0  0  0  0
  -33.9327   19.9303    3.2969 H   0  0  0  0  0  0  0  0  0  0  0  0
  -33.2803   21.4522    4.0253 H   0  0  0  0  0  0  0  0  0  0  0  0
  -32.4782   18.6371    4.4542 H   0  0  0  0  0  0  0  0  0  0  0  0
  -31.5791   20.1914    4.7422 H   0  0  0  0  0  0  0  0  0  0  0  0
  -32.6073   20.4885    6.8733 H   0  0  0  0  0  0  0  0  0  0  0  0
  -33.7304   19.0845    6.5645 H   0  0  0  0  0  0  0  0  0  0  0  0
  1  2  1  0
  2  3  1  0
  3  4  1  0
  4  5  1  0
  5  6  1  0
  6  7  2  0
  7  8  1  0
  8  9  1  0
  9 10  2  0
 10 11  1  0
 11 12  1  0
 12 13  1  0
 13 14  1  0
 14 15  1  0
 15 16  1  0
 16 17  1  0
 17 18  1  0
 18 19  2  0
 18 20  1  0
  1 21  1  0
  1 22  1  0
  1 23  1  0
  2 24  1  0
  2 25  1  0
  3 26  1  0
  3 27  1  0
  4 28  1  0
  4 29  1  0
  5 30  1  0
  5 31  1  0
  6 32  1  0
  7 33  1  0
  8 34  1  0
  8 35  1  0
  9 36  1  0
 10 37  1  0
 11 38  1  0
 11 39  1  0
 12 40  1  0
 12 41  1  0
 13 42  1  0
 13 43  1  0
 14 44  1  0
 14 45  1  0
 15 46  1  0
 15 47  1  0
 16 48  1  0
 16 49  1  0
 17 50  1  0
 17 51  1  0
M  CHG  1  20  -1
M  END
>  <meeko>  (6) 
{"is_sidechain": [false], "free_energy": -6.372, "intermolecular_energy": -12.25, "internal_energy": -1.847}

$$$$
linoleate_Nlobe_run02
     RDKit          3D

 51 50  0  0  0  0  0  0  0  0999 V2000
  -31.9230   24.6690    8.6330 C   0  0  0  0  0  0  0  0  0  0  0  0
  -32.4740   24.7250    7.2160 C   0  0  0  0  0  0  0  0  0  0  0  0
  -32.1960   23.4590    6.4020 C   0  0  0  0  0  0  0  0  0  0  0  0
  -31.7130   22.2830    7.2560 C   0  0  0  0  0  0  0  0  0  0  0  0
  -32.1480   20.9440    6.6480 C   0  0  0  0  0  0  0  0  0  0  0  0
  -31.6880   19.6970    7.3540 C   0  0  0  0  0  0  0  0  0  0  0  0
  -32.4330   18.8500    8.0820 C   0  0  0  0  0  0  0  0  0  0  0  0
  -33.9060   19.0310    8.3130 C   0  0  0  0  0  0  0  0  0  0  0  0
  -34.2020   19.3620    9.7460 C   0  0  0  0  0  0  0  0  0  0  0  0
  -34.4830   20.6000   10.1820 C   0  0  0  0  0  0  0  0  0  0  0  0
  -34.5370   21.8060    9.2880 C   0  0  0  0  0  0  0  0  0  0  0  0
  -35.8470   21.9120    8.4980 C   0  0  0  0  0  0  0  0  0  0  0  0
  -35.7570   22.8620    7.3000 C   0  0  0  0  0  0  0  0  0  0  0  0
  -35.6250   22.1340    5.9570 C   0  0  0  0  0  0  0  0  0  0  0  0
  -36.1250   20.6880    6.0000 C   0  0  0  0  0  0  0  0  0  0  0  0
  -37.5990   20.6000    5.5860 C   0  0  0  0  0  0  0  0  0  0  0  0
  -38.4470   19.8410    6.6060 C   0  0  0  0  0  0  0  0  0  0  0  0
  -39.5520   20.6810    7.2000 C   0  0  0  0  0  0  0  0  0  0  0  0
  -40.6230   20.2690    7.6190 O   0  0  0  0  0  0  0  0  0  0  0  0
  -39.1790   21.9850    7.2380 O   0  0  0  0  0  0  0  0  0  0  0  0
  -32.7512   24.7532    9.3520 H   0  0  0  0  0  0  0  0  0  0  0  0
  -31.4005   23.7131    8.7857 H   0  0  0  0  0  0  0  0  0  0  0  0
  -31.2189   25.5002    8.7857 H   0  0  0  0  0  0  0  0  0  0  0  0
  -33.5628   24.8711    7.2714 H   0  0  0  0  0  0  0  0  0  0  0  0
  -31.9668   25.5563    6.7044 H   0  0  0  0  0  0  0  0  0  0  0  0
  -33.1238   23.1617    5.8913 H   0  0  0  0  0  0  0  0  0  0  0  0
  -31.3904   23.6986    5.6923 H   0  0  0  0  0  0  0  0  0  0  0  0
  -30.6150   22.3102    7.3168 H   0  0  0  0  0  0  0  0  0  0  0  0
  -32.1579   22.3728    8.2580 H   0  0  0  0  0  0  0  0  0  0  0  0
  -33.2477   20.9290    6.6285 H   0  0  0  0  0  0  0  0  0  0  0  0
  -31.6689   20.9080    5.6585 H   0  0  0  0  0  0  0  0  0  0  0  0
  -30.6196   19.4516    7.2632 H   0  0  0  0  0  0  0  0  0  0  0  0
  -31.9384   17.9772    8.5332 H   0  0  0  0  0  0  0  0  0  0  0  0
  -34.2698   19.8497    7.6747 H   0  0  0  0  0  0  0  0  0  0  0  0
  -34.4124   18.0864    8.0656 H   0  0  0  0  0  0  0  0  0  0  0  0
  -34.1880   18.5438   10.4811 H   0  0  0  0  0  0  0  0  0  0  0  0
  -34.6851   20.7393   11.2543 H   0  0  0  0  0  0  0  0  0  0  0  0
  -34.4291   22.7073    9.9093 H   0  0  0  0  0  0  0  0  0  0  0  0
  -33.7206   21.7089    8.5572 H   0  0  0  0  0  0  0  0  0  0  0  0
  -36.1148   20.9105    8.1301 H   0  0  0  0  0  0  0  0  0  0  0  0
  -36.6070   22.3198    9.1807 H   0  0  0  0  0  0  0  0  0  0  0  0
  -36.6673   23.4791    7.2746 H   0  0  0  0  0  0  0  0  0  0  0  0
  -34.8487   23.4682    7.4325 H   0  0  0  0  0  0  0  0  0  0  0  0
  -36.2089   22.6830    5.2035 H   0  0  0  0  0  0  0  0  0  0  0  0
  -34.5540   22.1009    5.7084 H   0  0  0  0  0  0  0  0  0  0  0  0
  -35.5215   20.0787    5.3111 H   0  0  0  0  0  0  0  0  0  0  0  0
  -36.0292   20.3161    7.0308 H   0  0  0  0  0  0  0  0  0  0  0  0
  -37.9985   21.6198    5.4836 H   0  0  0  0  0  0  0  0  0  0  0  0
  -37.6476   20.0502    4.6345 H   0  0  0  0  0  0  0  0  0  0  0  0
  -38.8984   18.9705    6.1075 H   0  0  0  0  0  0  0  0  0  0  0  0
  -37.7814   19.5445    7.4300 H   0  0  0  0  0  0  0  0  0  0  0  0
  1  2  1  0
  2  3  1  0
  3  4  1  0
  4  5  1  0
  5  6  1  0
  6  7  2  0
  7  8  1  0
  8  9  1  0
  9 10  2  0
 10 11  1  0
 11 12  1  0
 12 13  1  0
 13 14  1  0
 14 15  1  0
 15 16  1  0
 16 17  1  0
 17 18  1  0
 18 19  2  0
 18 20  1  0
  1 21  1  0
  1 22  1  0
  1 23  1  0
  2 24  1  0
  2 25  1  0
  3 26  1  0
  3 27  1  0
  4 28  1  0
  4 29  1  0
  5 30  1  0
  5 31  1  0
  6 32  1  0
  7 33  1  0
  8 34  1  0
  8 35  1  0
  9 36  1  0
 10 37  1  0
 11 38  1  0
 11 39  1  0
 12 40  1  0
 12 41  1  0
 13 42  1  0
 13 43  1  0
 14 44  1  0
 14 45  1  0
 15 46  1  0
 15 47  1  0
 16 48  1  0
 16 49  1  0
 17 50  1  0
 17 51  1  0
M  CHG  1  20  -1
M  END
>  <meeko>  (7) 
{"is_sidechain": [false], "free_energy": -6.35, "intermolecular_energy": -11.334, "internal_energy": -2.724}

$$$$
linoleate_Nlobe_run02
     RDKit          3D

 51 50  0  0  0  0  0  0  0  0999 V2000
  -39.9290   20.0900    7.4820 C   0  0  0  0  0  0  0  0  0  0  0  0
  -38.5990   20.8270    7.4980 C   0  0  0  0  0  0  0  0  0  0  0  0
  -37.8740   20.8090    6.1510 C   0  0  0  0  0  0  0  0  0  0  0  0
  -36.3500   20.8830    6.2800 C   0  0  0  0  0  0  0  0  0  0  0  0
  -35.9390   21.5870    7.5790 C   0  0  0  0  0  0  0  0  0  0  0  0
  -34.9770   20.8530    8.4740 C   0  0  0  0  0  0  0  0  0  0  0  0
  -34.1930   21.3750    9.4310 C   0  0  0  0  0  0  0  0  0  0  0  0
  -34.1560   22.8390    9.7640 C   0  0  0  0  0  0  0  0  0  0  0  0
  -32.7560   23.3780    9.7220 C   0  0  0  0  0  0  0  0  0  0  0  0
  -32.3210   24.2500    8.8010 C   0  0  0  0  0  0  0  0  0  0  0  0
  -33.1820   24.7980    7.6980 C   0  0  0  0  0  0  0  0  0  0  0  0
  -33.2820   23.8590    6.4900 C   0  0  0  0  0  0  0  0  0  0  0  0
  -31.9700   23.1330    6.1760 C   0  0  0  0  0  0  0  0  0  0  0  0
  -32.0820   21.6080    6.2720 C   0  0  0  0  0  0  0  0  0  0  0  0
  -32.8850   20.9850    5.1280 C   0  0  0  0  0  0  0  0  0  0  0  0
  -32.6180   19.4790    5.0200 C   0  0  0  0  0  0  0  0  0  0  0  0
  -33.0060   18.7260    6.2920 C   0  0  0  0  0  0  0  0  0  0  0  0
  -31.8160   18.3190    7.1270 C   0  0  0  0  0  0  0  0  0  0  0  0
  -31.7040   18.4560    8.3360 O   0  0  0  0  0  0  0  0  0  0  0  0
  -30.8710   17.7380    6.3440 O   0  0  0  0  0  0  0  0  0  0  0  0
  -40.2592   19.9070    8.5152 H   0  0  0  0  0  0  0  0  0  0  0  0
  -40.6803   20.7005    6.9596 H   0  0  0  0  0  0  0  0  0  0  0  0
  -39.8096   19.1293    6.9596 H   0  0  0  0  0  0  0  0  0  0  0  0
  -38.7847   21.8741    7.7793 H   0  0  0  0  0  0  0  0  0  0  0  0
  -37.9512   20.3090    8.2205 H   0  0  0  0  0  0  0  0  0  0  0  0
  -38.1348   19.8777    5.6270 H   0  0  0  0  0  0  0  0  0  0  0  0
  -38.1968   21.7024    5.5963 H   0  0  0  0  0  0  0  0  0  0  0  0
  -35.9395   19.8625    6.2791 H   0  0  0  0  0  0  0  0  0  0  0  0
  -35.9552   21.4595    5.4304 H   0  0  0  0  0  0  0  0  0  0  0  0
  -35.4736   22.5453    7.3052 H   0  0  0  0  0  0  0  0  0  0  0  0
  -36.8662   21.6752    8.1642 H   0  0  0  0  0  0  0  0  0  0  0  0
  -34.9084   19.7650    8.3274 H   0  0  0  0  0  0  0  0  0  0  0  0
  -33.5436   20.6944   10.0012 H   0  0  0  0  0  0  0  0  0  0  0  0
  -34.7718   23.3868    9.0355 H   0  0  0  0  0  0  0  0  0  0  0  0
  -34.5457   22.9706   10.7842 H   0  0  0  0  0  0  0  0  0  0  0  0
  -32.0462   23.0383   10.4906 H   0  0  0  0  0  0  0  0  0  0  0  0
  -31.2741   24.5833    8.8560 H   0  0  0  0  0  0  0  0  0  0  0  0
  -34.1939   24.9669    8.0949 H   0  0  0  0  0  0  0  0  0  0  0  0
  -32.7149   25.7312    7.3502 H   0  0  0  0  0  0  0  0  0  0  0  0
  -34.0569   23.1060    6.6964 H   0  0  0  0  0  0  0  0  0  0  0  0
  -33.5286   24.4788    5.6153 H   0  0  0  0  0  0  0  0  0  0  0  0
  -31.6614   23.3965    5.1536 H   0  0  0  0  0  0  0  0  0  0  0  0
  -31.2332   23.4530    6.9274 H   0  0  0  0  0  0  0  0  0  0  0  0
  -31.0678   21.1822    6.2585 H   0  0  0  0  0  0  0  0  0  0  0  0
  -32.6161   21.3795    7.2061 H   0  0  0  0  0  0  0  0  0  0  0  0
  -33.9573   21.1471    5.3122 H   0  0  0  0  0  0  0  0  0  0  0  0
  -32.5772   21.4621    4.1858 H   0  0  0  0  0  0  0  0  0  0  0  0
  -33.2016   19.0762    4.1791 H   0  0  0  0  0  0  0  0  0  0  0  0
  -31.5380   19.3401    4.8642 H   0  0  0  0  0  0  0  0  0  0  0  0
  -33.6538   19.3754    6.8992 H   0  0  0  0  0  0  0  0  0  0  0  0
  -33.5198   17.8038    5.9828 H   0  0  0  0  0  0  0  0  0  0  0  0
  1  2  1  0
  2  3  1  0
  3  4  1  0
  4  5  1  0
  5  6  1  0
  6  7  2  0
  7  8  1  0
  8  9  1  0
  9 10  2  0
 10 11  1  0
 11 12  1  0
 12 13  1  0
 13 14  1  0
 14 15  1  0
 15 16  1  0
 16 17  1  0
 17 18  1  0
 18 19  2  0
 18 20  1  0
  1 21  1  0
  1 22  1  0
  1 23  1  0
  2 24  1  0
  2 25  1  0
  3 26  1  0
  3 27  1  0
  4 28  1  0
  4 29  1  0
  5 30  1  0
  5 31  1  0
  6 32  1  0
  7 33  1  0
  8 34  1  0
  8 35  1  0
  9 36  1  0
 10 37  1  0
 11 38  1  0
 11 39  1  0
 12 40  1  0
 12 41  1  0
 13 42  1  0
 13 43  1  0
 14 44  1  0
 14 45  1  0
 15 46  1  0
 15 47  1  0
 16 48  1  0
 16 49  1  0
 17 50  1  0
 17 51  1  0
M  CHG  1  20  -1
M  END
>  <meeko>  (8) 
{"is_sidechain": [false], "free_energy": -6.326, "intermolecular_energy": -11.623, "internal_energy": -2.391}

$$$$
linoleate_Nlobe_run02
     RDKit          3D

 51 50  0  0  0  0  0  0  0  0999 V2000
  -38.9350   20.5200    6.9130 C   0  0  0  0  0  0  0  0  0  0  0  0
  -37.4400   20.5520    7.1920 C   0  0  0  0  0  0  0  0  0  0  0  0
  -36.8330   21.9540    7.1100 C   0  0  0  0  0  0  0  0  0  0  0  0
  -35.7550   22.0860    6.0290 C   0  0  0  0  0  0  0  0  0  0  0  0
  -35.4820   20.7360    5.3550 C   0  0  0  0  0  0  0  0  0  0  0  0
  -34.2810   20.6610    4.4500 C   0  0  0  0  0  0  0  0  0  0  0  0
  -32.9900   20.6070    4.8120 C   0  0  0  0  0  0  0  0  0  0  0  0
  -32.5290   20.6170    6.2420 C   0  0  0  0  0  0  0  0  0  0  0  0
  -32.1880   19.2360    6.7190 C   0  0  0  0  0  0  0  0  0  0  0  0
  -32.9170   18.5580    7.6180 C   0  0  0  0  0  0  0  0  0  0  0  0
  -34.1650   19.0960    8.2570 C   0  0  0  0  0  0  0  0  0  0  0  0
  -33.9360   19.6210    9.6790 C   0  0  0  0  0  0  0  0  0  0  0  0
  -34.8230   20.8190   10.0340 C   0  0  0  0  0  0  0  0  0  0  0  0
  -34.0390   22.1260   10.1980 C   0  0  0  0  0  0  0  0  0  0  0  0
  -33.6400   22.7660    8.8660 C   0  0  0  0  0  0  0  0  0  0  0  0
  -32.3890   23.6390    9.0250 C   0  0  0  0  0  0  0  0  0  0  0  0
  -32.4150   24.8660    8.1140 C   0  0  0  0  0  0  0  0  0  0  0  0
  -32.6970   24.5270    6.6710 C   0  0  0  0  0  0  0  0  0  0  0  0
  -31.9290   23.9760    5.8970 O   0  0  0  0  0  0  0  0  0  0  0  0
  -33.9610   24.8980    6.3420 O   0  0  0  0  0  0  0  0  0  0  0  0
  -39.4855   20.5082    7.8652 H   0  0  0  0  0  0  0  0  0  0  0  0
  -39.2195   21.4123    6.3360 H   0  0  0  0  0  0  0  0  0  0  0  0
  -39.1811   19.6164    6.3360 H   0  0  0  0  0  0  0  0  0  0  0  0
  -37.2662   20.1561    8.2035 H   0  0  0  0  0  0  0  0  0  0  0  0
  -36.9532   19.9431    6.4159 H   0  0  0  0  0  0  0  0  0  0  0  0
  -37.6380   22.6705    6.8895 H   0  0  0  0  0  0  0  0  0  0  0  0
  -36.3505   22.1570    8.0775 H   0  0  0  0  0  0  0  0  0  0  0  0
  -36.0944   22.8051    5.2689 H   0  0  0  0  0  0  0  0  0  0  0  0
  -34.8255   22.4347    6.5028 H   0  0  0  0  0  0  0  0  0  0  0  0
  -35.3470   19.9880    6.1502 H   0  0  0  0  0  0  0  0  0  0  0  0
  -36.3481   20.5603    4.7000 H   0  0  0  0  0  0  0  0  0  0  0  0
  -34.4851   20.6491    3.3692 H   0  0  0  0  0  0  0  0  0  0  0  0
  -32.2288   20.5525    4.0198 H   0  0  0  0  0  0  0  0  0  0  0  0
  -31.6365   21.2546    6.3255 H   0  0  0  0  0  0  0  0  0  0  0  0
  -33.3474   21.0056    6.8659 H   0  0  0  0  0  0  0  0  0  0  0  0
  -31.2895   18.7522    6.3083 H   0  0  0  0  0  0  0  0  0  0  0  0
  -32.5814   17.5501    7.9036 H   0  0  0  0  0  0  0  0  0  0  0  0
  -34.5480   19.9202    7.6373 H   0  0  0  0  0  0  0  0  0  0  0  0
  -34.8818   18.2645    8.3265 H   0  0  0  0  0  0  0  0  0  0  0  0
  -34.1469   18.8080   10.3893 H   0  0  0  0  0  0  0  0  0  0  0  0
  -32.8915   19.9613    9.7359 H   0  0  0  0  0  0  0  0  0  0  0  0
  -35.5640   20.9545    9.2324 H   0  0  0  0  0  0  0  0  0  0  0  0
  -35.2958   20.5988   11.0025 H   0  0  0  0  0  0  0  0  0  0  0  0
  -34.6637   22.8400   10.7547 H   0  0  0  0  0  0  0  0  0  0  0  0
  -33.1092   21.8823   10.7329 H   0  0  0  0  0  0  0  0  0  0  0  0
  -33.4330   21.9718    8.1337 H   0  0  0  0  0  0  0  0  0  0  0  0
  -34.4687   23.4026    8.5225 H   0  0  0  0  0  0  0  0  0  0  0  0
  -32.3241   23.9762   10.0700 H   0  0  0  0  0  0  0  0  0  0  0  0
  -31.5172   23.0303    8.7429 H   0  0  0  0  0  0  0  0  0  0  0  0
  -33.1977   25.5510    8.4719 H   0  0  0  0  0  0  0  0  0  0  0  0
  -31.4160   25.3247    8.1536 H   0  0  0  0  0  0  0  0  0  0  0  0
  1  2  1  0
  2  3  1  0
  3  4  1  0
  4  5  1  0
  5  6  1  0
  6  7  2  0
  7  8  1  0
  8  9  1  0
  9 10  2  0
 10 11  1  0
 11 12  1  0
 12 13  1  0
 13 14  1  0
 14 15  1  0
 15 16  1  0
 16 17  1  0
 17 18  1  0
 18 19  2  0
 18 20  1  0
  1 21  1  0
  1 22  1  0
  1 23  1  0
  2 24  1  0
  2 25  1  0
  3 26  1  0
  3 27  1  0
  4 28  1  0
  4 29  1  0
  5 30  1  0
  5 31  1  0
  6 32  1  0
  7 33  1  0
  8 34  1  0
  8 35  1  0
  9 36  1  0
 10 37  1  0
 11 38  1  0
 11 39  1  0
 12 40  1  0
 12 41  1  0
 13 42  1  0
 13 43  1  0
 14 44  1  0
 14 45  1  0
 15 46  1  0
 15 47  1  0
 16 48  1  0
 16 49  1  0
 17 50  1  0
 17 51  1  0
M  CHG  1  20  -1
M  END
>  <meeko>  (9) 
{"is_sidechain": [false], "free_energy": -6.312, "intermolecular_energy": -11.499, "internal_energy": -2.49}

$$$$
linoleate_Nlobe_run02
     RDKit          3D

 51 50  0  0  0  0  0  0  0  0999 V2000
  -32.2960   25.1620    7.0670 C   0  0  0  0  0  0  0  0  0  0  0  0
  -31.9880   24.6120    8.4510 C   0  0  0  0  0  0  0  0  0  0  0  0
  -32.4310   23.1600    8.6440 C   0  0  0  0  0  0  0  0  0  0  0  0
  -33.2910   22.9490    9.8930 C   0  0  0  0  0  0  0  0  0  0  0  0
  -34.7290   22.5700    9.5170 C   0  0  0  0  0  0  0  0  0  0  0  0
  -35.3580   23.3360    8.3850 C   0  0  0  0  0  0  0  0  0  0  0  0
  -36.3730   22.9430    7.5990 C   0  0  0  0  0  0  0  0  0  0  0  0
  -37.0620   21.6150    7.7370 C   0  0  0  0  0  0  0  0  0  0  0  0
  -38.4740   21.6730    7.2340 C   0  0  0  0  0  0  0  0  0  0  0  0
  -38.9170   20.9780    6.1750 C   0  0  0  0  0  0  0  0  0  0  0  0
  -38.0530   20.0540    5.3640 C   0  0  0  0  0  0  0  0  0  0  0  0
  -37.1690   20.7910    4.3510 C   0  0  0  0  0  0  0  0  0  0  0  0
  -35.6950   20.3770    4.4200 C   0  0  0  0  0  0  0  0  0  0  0  0
  -34.7620   21.5240    4.8250 C   0  0  0  0  0  0  0  0  0  0  0  0
  -33.5970   21.0730    5.7090 C   0  0  0  0  0  0  0  0  0  0  0  0
  -34.0060   19.9000    6.6080 C   0  0  0  0  0  0  0  0  0  0  0  0
  -32.9660   19.6020    7.6870 C   0  0  0  0  0  0  0  0  0  0  0  0
  -31.7910   18.8040    7.1760 C   0  0  0  0  0  0  0  0  0  0  0  0
  -31.8010   18.0380    6.2250 O   0  0  0  0  0  0  0  0  0  0  0  0
  -30.6840   19.0790    7.9110 O   0  0  0  0  0  0  0  0  0  0  0  0
  -32.8314   26.1181    7.1632 H   0  0  0  0  0  0  0  0  0  0  0  0
  -31.3561   25.3217    6.5184 H   0  0  0  0  0  0  0  0  0  0  0  0
  -32.9233   24.4440    6.5184 H   0  0  0  0  0  0  0  0  0  0  0  0
  -30.9017   24.6691    8.6144 H   0  0  0  0  0  0  0  0  0  0  0  0
  -32.5515   25.2207    9.1735 H   0  0  0  0  0  0  0  0  0  0  0  0
  -33.0139   22.8530    7.7631 H   0  0  0  0  0  0  0  0  0  0  0  0
  -31.5203   22.5561    8.7702 H   0  0  0  0  0  0  0  0  0  0  0  0
  -32.8533   22.1413   10.4981 H   0  0  0  0  0  0  0  0  0  0  0  0
  -33.3157   23.8897   10.4627 H   0  0  0  0  0  0  0  0  0  0  0  0
  -34.7311   21.5054    9.2402 H   0  0  0  0  0  0  0  0  0  0  0  0
  -35.3329   22.8170   10.4026 H   0  0  0  0  0  0  0  0  0  0  0  0
  -34.9384   24.3315    8.1778 H   0  0  0  0  0  0  0  0  0  0  0  0
  -36.7185   23.6297    6.8122 H   0  0  0  0  0  0  0  0  0  0  0  0
  -36.5069   20.8625    7.1577 H   0  0  0  0  0  0  0  0  0  0  0  0
  -37.0865   21.3483    8.8039 H   0  0  0  0  0  0  0  0  0  0  0  0
  -39.1869   22.3222    7.7634 H   0  0  0  0  0  0  0  0  0  0  0  0
  -39.9718   21.0910    5.8843 H   0  0  0  0  0  0  0  0  0  0  0  0
  -37.4038   19.4898    6.0498 H   0  0  0  0  0  0  0  0  0  0  0  0
  -38.7236   19.3936    4.7946 H   0  0  0  0  0  0  0  0  0  0  0  0
  -37.5447   20.5779    3.3394 H   0  0  0  0  0  0  0  0  0  0  0  0
  -37.2185   21.8627    4.5938 H   0  0  0  0  0  0  0  0  0  0  0  0
  -35.5938   19.5674    5.1577 H   0  0  0  0  0  0  0  0  0  0  0  0
  -35.3987   20.0567    3.4103 H   0  0  0  0  0  0  0  0  0  0  0  0
  -34.3514   21.9792    3.9117 H   0  0  0  0  0  0  0  0  0  0  0  0
  -35.3588   22.2379    5.4116 H   0  0  0  0  0  0  0  0  0  0  0  0
  -32.7603   20.7590    5.0676 H   0  0  0  0  0  0  0  0  0  0  0  0
  -33.2988   21.9159    6.3497 H   0  0  0  0  0  0  0  0  0  0  0  0
  -34.9608   20.1453    7.0960 H   0  0  0  0  0  0  0  0  0  0  0  0
  -34.0954   19.0064    5.9729 H   0  0  0  0  0  0  0  0  0  0  0  0
  -32.5931   20.5567    8.0863 H   0  0  0  0  0  0  0  0  0  0  0  0
  -33.4613   18.9961    8.4600 H   0  0  0  0  0  0  0  0  0  0  0  0
  1  2  1  0
  2  3  1  0
  3  4  1  0
  4  5  1  0
  5  6  1  0
  6  7  2  0
  7  8  1  0
  8  9  1  0
  9 10  2  0
 10 11  1  0
 11 12  1  0
 12 13  1  0
 13 14  1  0
 14 15  1  0
 15 16  1  0
 16 17  1  0
 17 18  1  0
 18 19  2  0
 18 20  1  0
  1 21  1  0
  1 22  1  0
  1 23  1  0
  2 24  1  0
  2 25  1  0
  3 26  1  0
  3 27  1  0
  4 28  1  0
  4 29  1  0
  5 30  1  0
  5 31  1  0
  6 32  1  0
  7 33  1  0
  8 34  1  0
  8 35  1  0
  9 36  1  0
 10 37  1  0
 11 38  1  0
 11 39  1  0
 12 40  1  0
 12 41  1  0
 13 42  1  0
 13 43  1  0
 14 44  1  0
 14 45  1  0
 15 46  1  0
 15 47  1  0
 16 48  1  0
 16 49  1  0
 17 50  1  0
 17 51  1  0
M  CHG  1  20  -1
M  END
>  <meeko>  (10) 
{"is_sidechain": [false], "free_energy": -6.312, "intermolecular_energy": -11.406, "internal_energy": -2.582}

$$$$
linoleate_Nlobe_run02
     RDKit          3D

 51 50  0  0  0  0  0  0  0  0999 V2000
  -34.5960   21.0970   10.7990 C   0  0  0  0  0  0  0  0  0  0  0  0
  -34.3500   22.5980   10.8090 C   0  0  0  0  0  0  0  0  0  0  0  0
  -33.0820   23.0140   10.0600 C   0  0  0  0  0  0  0  0  0  0  0  0
  -32.7940   22.1510    8.8280 C   0  0  0  0  0  0  0  0  0  0  0  0
  -31.9320   22.9100    7.8120 C   0  0  0  0  0  0  0  0  0  0  0  0
  -32.2170   24.3780    7.6420 C   0  0  0  0  0  0  0  0  0  0  0  0
  -33.3140   24.9390    7.1100 C   0  0  0  0  0  0  0  0  0  0  0  0
  -34.4750   24.1480    6.5780 C   0  0  0  0  0  0  0  0  0  0  0  0
  -35.6370   24.1680    7.5270 C   0  0  0  0  0  0  0  0  0  0  0  0
  -36.3320   23.0760    7.8770 C   0  0  0  0  0  0  0  0  0  0  0  0
  -36.0310   21.6960    7.3640 C   0  0  0  0  0  0  0  0  0  0  0  0
  -36.9180   21.2870    6.1820 C   0  0  0  0  0  0  0  0  0  0  0  0
  -36.2030   21.3730    4.8300 C   0  0  0  0  0  0  0  0  0  0  0  0
  -35.0000   20.4300    4.7190 C   0  0  0  0  0  0  0  0  0  0  0  0
  -33.6580   21.1280    4.9570 C   0  0  0  0  0  0  0  0  0  0  0  0
  -32.5620   20.1140    5.3070 C   0  0  0  0  0  0  0  0  0  0  0  0
  -33.0000   19.1350    6.3950 C   0  0  0  0  0  0  0  0  0  0  0  0
  -31.8420   18.4270    7.0570 C   0  0  0  0  0  0  0  0  0  0  0  0
  -31.0120   17.7260    6.4980 O   0  0  0  0  0  0  0  0  0  0  0  0
  -31.8250   18.7030    8.3860 O   0  0  0  0  0  0  0  0  0  0  0  0
  -34.6564   20.7284   11.8337 H   0  0  0  0  0  0  0  0  0  0  0  0
  -35.5411   20.8838   10.2781 H   0  0  0  0  0  0  0  0  0  0  0  0
  -33.7684   20.5933   10.2781 H   0  0  0  0  0  0  0  0  0  0  0  0
  -35.2111   23.0950   10.3385 H   0  0  0  0  0  0  0  0  0  0  0  0
  -34.2181   22.8972   11.8593 H   0  0  0  0  0  0  0  0  0  0  0  0
  -33.1955   24.0588    9.7353 H   0  0  0  0  0  0  0  0  0  0  0  0
  -32.2376   22.8840   10.7528 H   0  0  0  0  0  0  0  0  0  0  0  0
  -32.2613   21.2416    9.1429 H   0  0  0  0  0  0  0  0  0  0  0  0
  -33.7508   21.8927    8.3508 H   0  0  0  0  0  0  0  0  0  0  0  0
  -30.8823   22.8090    8.1250 H   0  0  0  0  0  0  0  0  0  0  0  0
  -32.1687   22.4564    6.8382 H   0  0  0  0  0  0  0  0  0  0  0  0
  -31.4375   25.0698    7.9938 H   0  0  0  0  0  0  0  0  0  0  0  0
  -33.3657   26.0367    7.0609 H   0  0  0  0  0  0  0  0  0  0  0  0
  -34.7912   24.5801    5.6171 H   0  0  0  0  0  0  0  0  0  0  0  0
  -34.1516   23.1043    6.4514 H   0  0  0  0  0  0  0  0  0  0  0  0
  -35.9359   25.1338    7.9604 H   0  0  0  0  0  0  0  0  0  0  0  0
  -37.1699   23.1972    8.5794 H   0  0  0  0  0  0  0  0  0  0  0  0
  -34.9801   21.6642    7.0405 H   0  0  0  0  0  0  0  0  0  0  0  0
  -36.2311   20.9904    8.1838 H   0  0  0  0  0  0  0  0  0  0  0  0
  -37.2491   20.2495    6.3365 H   0  0  0  0  0  0  0  0  0  0  0  0
  -37.7626   21.9910    6.1494 H   0  0  0  0  0  0  0  0  0  0  0  0
  -36.9219   21.1164    4.0380 H   0  0  0  0  0  0  0  0  0  0  0  0
  -35.8223   22.3999    4.7277 H   0  0  0  0  0  0  0  0  0  0  0  0
  -35.1141   19.6295    5.4648 H   0  0  0  0  0  0  0  0  0  0  0  0
  -34.9860   20.0401    3.6905 H   0  0  0  0  0  0  0  0  0  0  0  0
  -33.3681   21.6696    4.0445 H   0  0  0  0  0  0  0  0  0  0  0  0
  -33.7716   21.8245    5.8008 H   0  0  0  0  0  0  0  0  0  0  0  0
  -32.3057   19.5443    4.4016 H   0  0  0  0  0  0  0  0  0  0  0  0
  -31.6962   20.6746    5.6892 H   0  0  0  0  0  0  0  0  0  0  0  0
  -33.5554   19.6920    7.1640 H   0  0  0  0  0  0  0  0  0  0  0  0
  -33.6218   18.3662    5.9130 H   0  0  0  0  0  0  0  0  0  0  0  0
  1  2  1  0
  2  3  1  0
  3  4  1  0
  4  5  1  0
  5  6  1  0
  6  7  2  0
  7  8  1  0
  8  9  1  0
  9 10  2  0
 10 11  1  0
 11 12  1  0
 12 13  1  0
 13 14  1  0
 14 15  1  0
 15 16  1  0
 16 17  1  0
 17 18  1  0
 18 19  2  0
 18 20  1  0
  1 21  1  0
  1 22  1  0
  1 23  1  0
  2 24  1  0
  2 25  1  0
  3 26  1  0
  3 27  1  0
  4 28  1  0
  4 29  1  0
  5 30  1  0
  5 31  1  0
  6 32  1  0
  7 33  1  0
  8 34  1  0
  8 35  1  0
  9 36  1  0
 10 37  1  0
 11 38  1  0
 11 39  1  0
 12 40  1  0
 12 41  1  0
 13 42  1  0
 13 43  1  0
 14 44  1  0
 14 45  1  0
 15 46  1  0
 15 47  1  0
 16 48  1  0
 16 49  1  0
 17 50  1  0
 17 51  1  0
M  CHG  1  20  -1
M  END
>  <meeko>  (11) 
{"is_sidechain": [false], "free_energy": -6.299, "intermolecular_energy": -11.273, "internal_energy": -2.692}

$$$$
linoleate_Nlobe_run02
     RDKit          3D

 51 50  0  0  0  0  0  0  0  0999 V2000
  -39.6580   20.6830    7.8580 C   0  0  0  0  0  0  0  0  0  0  0  0
  -38.5890   20.3430    6.8310 C   0  0  0  0  0  0  0  0  0  0  0  0
  -37.3200   21.1860    6.9670 C   0  0  0  0  0  0  0  0  0  0  0  0
  -36.2310   20.8130    5.9560 C   0  0  0  0  0  0  0  0  0  0  0  0
  -35.0660   21.8090    6.0060 C   0  0  0  0  0  0  0  0  0  0  0  0
  -33.8700   21.4960    5.1470 C   0  0  0  0  0  0  0  0  0  0  0  0
  -32.5760   21.5700    5.4950 C   0  0  0  0  0  0  0  0  0  0  0  0
  -32.1060   21.9980    6.8560 C   0  0  0  0  0  0  0  0  0  0  0  0
  -32.0430   23.4920    6.9720 C   0  0  0  0  0  0  0  0  0  0  0  0
  -32.2360   24.1590    8.1200 C   0  0  0  0  0  0  0  0  0  0  0  0
  -32.5380   23.4920    9.4320 C   0  0  0  0  0  0  0  0  0  0  0  0
  -34.0060   23.0720    9.5700 C   0  0  0  0  0  0  0  0  0  0  0  0
  -34.3080   22.3480   10.8860 C   0  0  0  0  0  0  0  0  0  0  0  0
  -34.7140   20.8830   10.6920 C   0  0  0  0  0  0  0  0  0  0  0  0
  -34.6240   20.4160    9.2370 C   0  0  0  0  0  0  0  0  0  0  0  0
  -33.6380   19.2500    9.0910 C   0  0  0  0  0  0  0  0  0  0  0  0
  -33.5590   18.7300    7.6570 C   0  0  0  0  0  0  0  0  0  0  0  0
  -32.1590   18.3480    7.2410 C   0  0  0  0  0  0  0  0  0  0  0  0
  -31.1870   18.2640    7.9760 O   0  0  0  0  0  0  0  0  0  0  0  0
  -32.1250   18.0710    5.9120 O   0  0  0  0  0  0  0  0  0  0  0  0
  -39.2484   20.5527    8.8705 H   0  0  0  0  0  0  0  0  0  0  0  0
  -39.9772   21.7270    7.7231 H   0  0  0  0  0  0  0  0  0  0  0  0
  -40.5216   20.0152    7.7231 H   0  0  0  0  0  0  0  0  0  0  0  0
  -38.3173   19.2837    6.9494 H   0  0  0  0  0  0  0  0  0  0  0  0
  -39.0142   20.5572    5.8394 H   0  0  0  0  0  0  0  0  0  0  0  0
  -37.5860   22.2431    6.8190 H   0  0  0  0  0  0  0  0  0  0  0  0
  -36.9104   20.9971    7.9703 H   0  0  0  0  0  0  0  0  0  0  0  0
  -35.8534   19.8066    6.1897 H   0  0  0  0  0  0  0  0  0  0  0  0
  -36.6682   20.8375    4.9469 H   0  0  0  0  0  0  0  0  0  0  0  0
  -35.4529   22.7901    5.6935 H   0  0  0  0  0  0  0  0  0  0  0  0
  -34.6962   21.7687    7.0412 H   0  0  0  0  0  0  0  0  0  0  0  0
  -34.0805   21.1698    4.1178 H   0  0  0  0  0  0  0  0  0  0  0  0
  -31.8188   21.3029    4.7431 H   0  0  0  0  0  0  0  0  0  0  0  0
  -32.8032   21.6099    7.6131 H   0  0  0  0  0  0  0  0  0  0  0  0
  -31.0938   21.5970    7.0131 H   0  0  0  0  0  0  0  0  0  0  0  0
  -31.8262   24.0740    6.0641 H   0  0  0  0  0  0  0  0  0  0  0  0
  -32.1693   25.2568    8.0995 H   0  0  0  0  0  0  0  0  0  0  0  0
  -31.9075   22.5952    9.5220 H   0  0  0  0  0  0  0  0  0  0  0  0
  -32.3303   24.2234   10.2269 H   0  0  0  0  0  0  0  0  0  0  0  0
  -34.6337   23.9737    9.5155 H   0  0  0  0  0  0  0  0  0  0  0  0
  -34.2214   22.3671    8.7535 H   0  0  0  0  0  0  0  0  0  0  0  0
  -33.4075   22.3802   11.5169 H   0  0  0  0  0  0  0  0  0  0  0  0
  -35.1600   22.8633   11.3535 H   0  0  0  0  0  0  0  0  0  0  0  0
  -34.0500   20.2532   11.3023 H   0  0  0  0  0  0  0  0  0  0  0  0
  -35.7670   20.7941   10.9976 H   0  0  0  0  0  0  0  0  0  0  0  0
  -35.6195   20.0886    8.9026 H   0  0  0  0  0  0  0  0  0  0  0  0
  -34.2661   21.2551    8.6223 H   0  0  0  0  0  0  0  0  0  0  0  0
  -32.6387   19.5919    9.3983 H   0  0  0  0  0  0  0  0  0  0  0  0
  -33.9957   18.4268    9.7269 H   0  0  0  0  0  0  0  0  0  0  0  0
  -34.2041   17.8432    7.5703 H   0  0  0  0  0  0  0  0  0  0  0  0
  -33.8868   19.5447    6.9946 H   0  0  0  0  0  0  0  0  0  0  0  0
  1  2  1  0
  2  3  1  0
  3  4  1  0
  4  5  1  0
  5  6  1  0
  6  7  2  0
  7  8  1  0
  8  9  1  0
  9 10  2  0
 10 11  1  0
 11 12  1  0
 12 13  1  0
 13 14  1  0
 14 15  1  0
 15 16  1  0
 16 17  1  0
 17 18  1  0
 18 19  2  0
 18 20  1  0
  1 21  1  0
  1 22  1  0
  1 23  1  0
  2 24  1  0
  2 25  1  0
  3 26  1  0
  3 27  1  0
  4 28  1  0
  4 29  1  0
  5 30  1  0
  5 31  1  0
  6 32  1  0
  7 33  1  0
  8 34  1  0
  8 35  1  0
  9 36  1  0
 10 37  1  0
 11 38  1  0
 11 39  1  0
 12 40  1  0
 12 41  1  0
 13 42  1  0
 13 43  1  0
 14 44  1  0
 14 45  1  0
 15 46  1  0
 15 47  1  0
 16 48  1  0
 16 49  1  0
 17 50  1  0
 17 51  1  0
M  CHG  1  20  -1
M  END
>  <meeko>  (12) 
{"is_sidechain": [false], "free_energy": -6.272, "intermolecular_energy": -11.619, "internal_energy": -2.297}

$$$$
linoleate_Nlobe_run02
     RDKit          3D

 51 50  0  0  0  0  0  0  0  0999 V2000
  -31.3890   18.2220    6.9220 C   0  0  0  0  0  0  0  0  0  0  0  0
  -32.1150   18.9340    8.0530 C   0  0  0  0  0  0  0  0  0  0  0  0
  -33.4980   19.4570    7.6570 C   0  0  0  0  0  0  0  0  0  0  0  0
  -33.6310   19.7500    6.1600 C   0  0  0  0  0  0  0  0  0  0  0  0
  -33.5740   21.2570    5.8850 C   0  0  0  0  0  0  0  0  0  0  0  0
  -32.2070   21.8680    5.7330 C   0  0  0  0  0  0  0  0  0  0  0  0
  -31.8350   23.1190    6.0470 C   0  0  0  0  0  0  0  0  0  0  0  0
  -32.7710   24.1440    6.6220 C   0  0  0  0  0  0  0  0  0  0  0  0
  -32.1690   24.8340    7.8110 C   0  0  0  0  0  0  0  0  0  0  0  0
  -32.0940   24.2840    9.0320 C   0  0  0  0  0  0  0  0  0  0  0  0
  -32.6000   22.9080    9.3600 C   0  0  0  0  0  0  0  0  0  0  0  0
  -33.9670   22.9200   10.0540 C   0  0  0  0  0  0  0  0  0  0  0  0
  -35.0840   22.3010    9.2060 C   0  0  0  0  0  0  0  0  0  0  0  0
  -35.7520   23.3040    8.2590 C   0  0  0  0  0  0  0  0  0  0  0  0
  -36.8570   22.6830    7.4010 C   0  0  0  0  0  0  0  0  0  0  0  0
  -36.8380   21.1530    7.4970 C   0  0  0  0  0  0  0  0  0  0  0  0
  -38.1990   20.5320    7.1860 C   0  0  0  0  0  0  0  0  0  0  0  0
  -38.4970   20.4650    5.7070 C   0  0  0  0  0  0  0  0  0  0  0  0
  -39.5820   20.6610    5.1810 O   0  0  0  0  0  0  0  0  0  0  0  0
  -37.3640   20.1790    5.0150 O   0  0  0  0  0  0  0  0  0  0  0  0
  -30.6634   17.5104    7.3427 H   0  0  0  0  0  0  0  0  0  0  0  0
  -32.1182   17.6791    6.3026 H   0  0  0  0  0  0  0  0  0  0  0  0
  -30.8604   18.9616    6.3026 H   0  0  0  0  0  0  0  0  0  0  0  0
  -32.2356   18.2282    8.8881 H   0  0  0  0  0  0  0  0  0  0  0  0
  -31.5058   19.8072    8.3295 H   0  0  0  0  0  0  0  0  0  0  0  0
  -34.2486   18.7016    7.9326 H   0  0  0  0  0  0  0  0  0  0  0  0
  -33.6505   20.4076    8.1890 H   0  0  0  0  0  0  0  0  0  0  0  0
  -32.8083   19.2555    5.6227 H   0  0  0  0  0  0  0  0  0  0  0  0
  -34.6032   19.3685    5.8145 H   0  0  0  0  0  0  0  0  0  0  0  0
  -34.1286   21.4466    4.9541 H   0  0  0  0  0  0  0  0  0  0  0  0
  -34.0023   21.7295    6.7813 H   0  0  0  0  0  0  0  0  0  0  0  0
  -31.4245   21.2159    5.3178 H   0  0  0  0  0  0  0  0  0  0  0  0
  -30.7882   23.4094    5.8740 H   0  0  0  0  0  0  0  0  0  0  0  0
  -32.9971   24.8943    5.8501 H   0  0  0  0  0  0  0  0  0  0  0  0
  -33.6868   23.6298    6.9489 H   0  0  0  0  0  0  0  0  0  0  0  0
  -31.7664   25.8484    7.6733 H   0  0  0  0  0  0  0  0  0  0  0  0
  -31.6358   24.8742    9.8393 H   0  0  0  0  0  0  0  0  0  0  0  0
  -32.6869   22.3348    8.4252 H   0  0  0  0  0  0  0  0  0  0  0  0
  -31.8819   22.4518   10.0573 H   0  0  0  0  0  0  0  0  0  0  0  0
  -33.8866   22.3528   10.9930 H   0  0  0  0  0  0  0  0  0  0  0  0
  -34.2350   23.9728   10.2268 H   0  0  0  0  0  0  0  0  0  0  0  0
  -34.6552   21.4855    8.6051 H   0  0  0  0  0  0  0  0  0  0  0  0
  -35.8586   21.9414    9.8993 H   0  0  0  0  0  0  0  0  0  0  0  0
  -36.1906   24.1136    8.8608 H   0  0  0  0  0  0  0  0  0  0  0  0
  -34.9748   23.6719    7.5730 H   0  0  0  0  0  0  0  0  0  0  0  0
  -37.8327   23.0525    7.7496 H   0  0  0  0  0  0  0  0  0  0  0  0
  -36.6867   22.9689    6.3525 H   0  0  0  0  0  0  0  0  0  0  0  0
  -36.1001   20.7634    6.7803 H   0  0  0  0  0  0  0  0  0  0  0  0
  -36.5762   20.8855    8.5314 H   0  0  0  0  0  0  0  0  0  0  0  0
  -38.2188   19.5104    7.5935 H   0  0  0  0  0  0  0  0  0  0  0  0
  -38.9647   21.1743    7.6455 H   0  0  0  0  0  0  0  0  0  0  0  0
  1  2  1  0
  2  3  1  0
  3  4  1  0
  4  5  1  0
  5  6  1  0
  6  7  2  0
  7  8  1  0
  8  9  1  0
  9 10  2  0
 10 11  1  0
 11 12  1  0
 12 13  1  0
 13 14  1  0
 14 15  1  0
 15 16  1  0
 16 17  1  0
 17 18  1  0
 18 19  2  0
 18 20  1  0
  1 21  1  0
  1 22  1  0
  1 23  1  0
  2 24  1  0
  2 25  1  0
  3 26  1  0
  3 27  1  0
  4 28  1  0
  4 29  1  0
  5 30  1  0
  5 31  1  0
  6 32  1  0
  7 33  1  0
  8 34  1  0
  8 35  1  0
  9 36  1  0
 10 37  1  0
 11 38  1  0
 11 39  1  0
 12 40  1  0
 12 41  1  0
 13 42  1  0
 13 43  1  0
 14 44  1  0
 14 45  1  0
 15 46  1  0
 15 47  1  0
 16 48  1  0
 16 49  1  0
 17 50  1  0
 17 51  1  0
M  CHG  1  20  -1
M  END
>  <meeko>  (13) 
{"is_sidechain": [false], "free_energy": -6.262, "intermolecular_energy": -11.287, "internal_energy": -2.611}

$$$$
linoleate_Nlobe_run02
     RDKit          3D

 51 50  0  0  0  0  0  0  0  0999 V2000
  -37.1530   20.5290    4.4220 C   0  0  0  0  0  0  0  0  0  0  0  0
  -38.0110   20.3790    5.6690 C   0  0  0  0  0  0  0  0  0  0  0  0
  -37.3060   20.8240    6.9520 C   0  0  0  0  0  0  0  0  0  0  0  0
  -37.5660   22.2910    7.3090 C   0  0  0  0  0  0  0  0  0  0  0  0
  -36.2610   23.0110    7.6710 C   0  0  0  0  0  0  0  0  0  0  0  0
  -35.2660   23.2090    6.5600 C   0  0  0  0  0  0  0  0  0  0  0  0
  -34.0890   23.8520    6.6250 C   0  0  0  0  0  0  0  0  0  0  0  0
  -33.5680   24.5020    7.8750 C   0  0  0  0  0  0  0  0  0  0  0  0
  -32.4620   23.6980    8.4930 C   0  0  0  0  0  0  0  0  0  0  0  0
  -32.6010   22.9830    9.6200 C   0  0  0  0  0  0  0  0  0  0  0  0
  -33.8820   22.8990   10.4010 C   0  0  0  0  0  0  0  0  0  0  0  0
  -34.4070   21.4660   10.5430 C   0  0  0  0  0  0  0  0  0  0  0  0
  -34.4940   20.7180    9.2080 C   0  0  0  0  0  0  0  0  0  0  0  0
  -33.7450   19.3810    9.2130 C   0  0  0  0  0  0  0  0  0  0  0  0
  -32.7030   19.2660    8.0970 C   0  0  0  0  0  0  0  0  0  0  0  0
  -32.9370   20.3230    7.0120 C   0  0  0  0  0  0  0  0  0  0  0  0
  -33.7780   19.7930    5.8520 C   0  0  0  0  0  0  0  0  0  0  0  0
  -33.2580   20.2170    4.4990 C   0  0  0  0  0  0  0  0  0  0  0  0
  -33.5990   21.2120    3.8760 O   0  0  0  0  0  0  0  0  0  0  0  0
  -32.3160   19.3420    4.0660 O   0  0  0  0  0  0  0  0  0  0  0  0
  -36.1087   20.7116    4.7153 H   0  0  0  0  0  0  0  0  0  0  0  0
  -37.2103   19.6072    3.8245 H   0  0  0  0  0  0  0  0  0  0  0  0
  -37.5196   21.3767    3.8245 H   0  0  0  0  0  0  0  0  0  0  0  0
  -38.9191   20.9867    5.5420 H   0  0  0  0  0  0  0  0  0  0  0  0
  -38.2376   19.3082    5.7790 H   0  0  0  0  0  0  0  0  0  0  0  0
  -37.6607   20.1947    7.7815 H   0  0  0  0  0  0  0  0  0  0  0  0
  -36.2243   20.7166    6.7833 H   0  0  0  0  0  0  0  0  0  0  0  0
  -38.0267   22.7945    6.4463 H   0  0  0  0  0  0  0  0  0  0  0  0
  -38.2369   22.3249    8.1801 H   0  0  0  0  0  0  0  0  0  0  0  0
  -36.5262   24.0046    8.0615 H   0  0  0  0  0  0  0  0  0  0  0  0
  -35.7586   22.3513    8.3938 H   0  0  0  0  0  0  0  0  0  0  0  0
  -35.5330   22.7782    5.5837 H   0  0  0  0  0  0  0  0  0  0  0  0
  -33.4738   23.9056    5.7147 H   0  0  0  0  0  0  0  0  0  0  0  0
  -33.1857   25.5027    7.6249 H   0  0  0  0  0  0  0  0  0  0  0  0
  -34.3932   24.5678    8.5994 H   0  0  0  0  0  0  0  0  0  0  0  0
  -31.4817   23.6945    7.9939 H   0  0  0  0  0  0  0  0  0  0  0  0
  -31.7282   22.4271    9.9931 H   0  0  0  0  0  0  0  0  0  0  0  0
  -33.7064   23.3087   11.4066 H   0  0  0  0  0  0  0  0  0  0  0  0
  -34.6408   23.4730    9.8490 H   0  0  0  0  0  0  0  0  0  0  0  0
  -33.7317   20.9112   11.2109 H   0  0  0  0  0  0  0  0  0  0  0  0
  -35.4279   21.5312   10.9475 H   0  0  0  0  0  0  0  0  0  0  0  0
  -35.5535   20.5239    8.9848 H   0  0  0  0  0  0  0  0  0  0  0  0
  -34.0200   21.3544    8.4462 H   0  0  0  0  0  0  0  0  0  0  0  0
  -33.2337   19.2709   10.1807 H   0  0  0  0  0  0  0  0  0  0  0  0
  -34.4903   18.5895    9.0455 H   0  0  0  0  0  0  0  0  0  0  0  0
  -31.7001   19.4076    8.5260 H   0  0  0  0  0  0  0  0  0  0  0  0
  -32.7906   18.2698    7.6387 H   0  0  0  0  0  0  0  0  0  0  0  0
  -33.4574   21.1814    7.4619 H   0  0  0  0  0  0  0  0  0  0  0  0
  -31.9551   20.6119    6.6089 H   0  0  0  0  0  0  0  0  0  0  0  0
  -33.7820   18.6939    5.8964 H   0  0  0  0  0  0  0  0  0  0  0  0
  -34.7883   20.2142    5.9610 H   0  0  0  0  0  0  0  0  0  0  0  0
  1  2  1  0
  2  3  1  0
  3  4  1  0
  4  5  1  0
  5  6  1  0
  6  7  2  0
  7  8  1  0
  8  9  1  0
  9 10  2  0
 10 11  1  0
 11 12  1  0
 12 13  1  0
 13 14  1  0
 14 15  1  0
 15 16  1  0
 16 17  1  0
 17 18  1  0
 18 19  2  0
 18 20  1  0
  1 21  1  0
  1 22  1  0
  1 23  1  0
  2 24  1  0
  2 25  1  0
  3 26  1  0
  3 27  1  0
  4 28  1  0
  4 29  1  0
  5 30  1  0
  5 31  1  0
  6 32  1  0
  7 33  1  0
  8 34  1  0
  8 35  1  0
  9 36  1  0
 10 37  1  0
 11 38  1  0
 11 39  1  0
 12 40  1  0
 12 41  1  0
 13 42  1  0
 13 43  1  0
 14 44  1  0
 14 45  1  0
 15 46  1  0
 15 47  1  0
 16 48  1  0
 16 49  1  0
 17 50  1  0
 17 51  1  0
M  CHG  1  20  -1
M  END
>  <meeko>  (14) 
{"is_sidechain": [false], "free_energy": -6.238, "intermolecular_energy": -10.982, "internal_energy": -2.873}

$$$$
linoleate_Nlobe_run02
     RDKit          3D

 51 50  0  0  0  0  0  0  0  0999 V2000
  -39.6500   22.6420    7.4450 C   0  0  0  0  0  0  0  0  0  0  0  0
  -39.2640   21.2680    6.9200 C   0  0  0  0  0  0  0  0  0  0  0  0
  -37.8280   20.8640    7.2620 C   0  0  0  0  0  0  0  0  0  0  0  0
  -36.8450   21.0820    6.1080 C   0  0  0  0  0  0  0  0  0  0  0  0
  -35.6150   21.8730    6.5710 C   0  0  0  0  0  0  0  0  0  0  0  0
  -35.8680   23.0640    7.4560 C   0  0  0  0  0  0  0  0  0  0  0  0
  -35.1430   24.1910    7.5330 C   0  0  0  0  0  0  0  0  0  0  0  0
  -33.9110   24.4420    6.7110 C   0  0  0  0  0  0  0  0  0  0  0  0
  -32.9110   25.2740    7.4570 C   0  0  0  0  0  0  0  0  0  0  0  0
  -32.1290   24.7980    8.4380 C   0  0  0  0  0  0  0  0  0  0  0  0
  -32.1580   23.3720    8.9090 C   0  0  0  0  0  0  0  0  0  0  0  0
  -31.7580   22.3700    7.8200 C   0  0  0  0  0  0  0  0  0  0  0  0
  -32.3880   20.9860    8.0070 C   0  0  0  0  0  0  0  0  0  0  0  0
  -31.4480   19.8360    7.6310 C   0  0  0  0  0  0  0  0  0  0  0  0
  -32.1830   18.5950    7.1170 C   0  0  0  0  0  0  0  0  0  0  0  0
  -33.2060   18.9660    6.0370 C   0  0  0  0  0  0  0  0  0  0  0  0
  -32.5430   19.4480    4.7470 C   0  0  0  0  0  0  0  0  0  0  0  0
  -33.1060   20.7560    4.2440 C   0  0  0  0  0  0  0  0  0  0  0  0
  -34.1140   20.8930    3.5690 O   0  0  0  0  0  0  0  0  0  0  0  0
  -32.3400   21.7900    4.6750 O   0  0  0  0  0  0  0  0  0  0  0  0
  -39.6462   22.6286    8.5449 H   0  0  0  0  0  0  0  0  0  0  0  0
  -38.9268   23.3886    7.0849 H   0  0  0  0  0  0  0  0  0  0  0  0
  -40.6562   22.9027    7.0849 H   0  0  0  0  0  0  0  0  0  0  0  0
  -39.9478   20.5244    7.3554 H   0  0  0  0  0  0  0  0  0  0  0  0
  -39.3355   21.3094    5.8231 H   0  0  0  0  0  0  0  0  0  0  0  0
  -37.4932   21.4611    8.1230 H   0  0  0  0  0  0  0  0  0  0  0  0
  -37.8370   19.7864    7.4825 H   0  0  0  0  0  0  0  0  0  0  0  0
  -36.5193   20.1040    5.7241 H   0  0  0  0  0  0  0  0  0  0  0  0
  -37.3536   21.6572    5.3203 H   0  0  0  0  0  0  0  0  0  0  0  0
  -34.9625   21.1806    7.1232 H   0  0  0  0  0  0  0  0  0  0  0  0
  -35.1752   22.2860    5.6512 H   0  0  0  0  0  0  0  0  0  0  0  0
  -36.7470   23.0039    8.1146 H   0  0  0  0  0  0  0  0  0  0  0  0
  -35.4684   24.9724    8.2355 H   0  0  0  0  0  0  0  0  0  0  0  0
  -33.4510   23.4767    6.4530 H   0  0  0  0  0  0  0  0  0  0  0  0
  -34.2074   24.9901    5.8045 H   0  0  0  0  0  0  0  0  0  0  0  0
  -32.8129   26.3352    7.1844 H   0  0  0  0  0  0  0  0  0  0  0  0
  -31.4271   25.4912    8.9247 H   0  0  0  0  0  0  0  0  0  0  0  0
  -31.4607   23.2681    9.7534 H   0  0  0  0  0  0  0  0  0  0  0  0
  -33.1941   23.1439    9.1996 H   0  0  0  0  0  0  0  0  0  0  0  0
  -32.0753   22.7690    6.8453 H   0  0  0  0  0  0  0  0  0  0  0  0
  -30.6672   22.2417    7.8810 H   0  0  0  0  0  0  0  0  0  0  0  0
  -32.6736   20.8723    9.0632 H   0  0  0  0  0  0  0  0  0  0  0  0
  -33.2565   20.9299    7.3342 H   0  0  0  0  0  0  0  0  0  0  0  0
  -30.7641   20.1873    6.8443 H   0  0  0  0  0  0  0  0  0  0  0  0
  -30.9123   19.5414    8.5455 H   0  0  0  0  0  0  0  0  0  0  0  0
  -31.4498   17.8940    6.6915 H   0  0  0  0  0  0  0  0  0  0  0  0
  -32.7175   18.1320    7.9596 H   0  0  0  0  0  0  0  0  0  0  0  0
  -33.8173   18.0800    5.8103 H   0  0  0  0  0  0  0  0  0  0  0  0
  -33.8206   19.7910    6.4266 H   0  0  0  0  0  0  0  0  0  0  0  0
  -31.4670   19.5790    4.9343 H   0  0  0  0  0  0  0  0  0  0  0  0
  -32.7375   18.6889    3.9750 H   0  0  0  0  0  0  0  0  0  0  0  0
  1  2  1  0
  2  3  1  0
  3  4  1  0
  4  5  1  0
  5  6  1  0
  6  7  2  0
  7  8  1  0
  8  9  1  0
  9 10  2  0
 10 11  1  0
 11 12  1  0
 12 13  1  0
 13 14  1  0
 14 15  1  0
 15 16  1  0
 16 17  1  0
 17 18  1  0
 18 19  2  0
 18 20  1  0
  1 21  1  0
  1 22  1  0
  1 23  1  0
  2 24  1  0
  2 25  1  0
  3 26  1  0
  3 27  1  0
  4 28  1  0
  4 29  1  0
  5 30  1  0
  5 31  1  0
  6 32  1  0
  7 33  1  0
  8 34  1  0
  8 35  1  0
  9 36  1  0
 10 37  1  0
 11 38  1  0
 11 39  1  0
 12 40  1  0
 12 41  1  0
 13 42  1  0
 13 43  1  0
 14 44  1  0
 14 45  1  0
 15 46  1  0
 15 47  1  0
 16 48  1  0
 16 49  1  0
 17 50  1  0
 17 51  1  0
M  CHG  1  20  -1
M  END
>  <meeko>  (15) 
{"is_sidechain": [false], "free_energy": -6.219, "intermolecular_energy": -12.21, "internal_energy": -1.61}

$$$$
linoleate_Nlobe_run02
     RDKit          3D

 51 50  0  0  0  0  0  0  0  0999 V2000
  -33.8030   22.7040   11.2880 C   0  0  0  0  0  0  0  0  0  0  0  0
  -34.6350   21.6910   10.5160 C   0  0  0  0  0  0  0  0  0  0  0  0
  -34.4450   20.2510   10.9980 C   0  0  0  0  0  0  0  0  0  0  0  0
  -34.0110   19.2910    9.8850 C   0  0  0  0  0  0  0  0  0  0  0  0
  -34.3160   19.8770    8.5010 C   0  0  0  0  0  0  0  0  0  0  0  0
  -33.3760   19.5060    7.3860 C   0  0  0  0  0  0  0  0  0  0  0  0
  -32.2860   20.1760    6.9810 C   0  0  0  0  0  0  0  0  0  0  0  0
  -31.8210   21.4590    7.6100 C   0  0  0  0  0  0  0  0  0  0  0  0
  -31.7720   22.5760    6.6100 C   0  0  0  0  0  0  0  0  0  0  0  0
  -32.5360   23.6760    6.6840 C   0  0  0  0  0  0  0  0  0  0  0  0
  -33.5350   23.9260    7.7790 C   0  0  0  0  0  0  0  0  0  0  0  0
  -34.9700   24.0780    7.2610 C   0  0  0  0  0  0  0  0  0  0  0  0
  -35.7020   22.7410    7.1030 C   0  0  0  0  0  0  0  0  0  0  0  0
  -35.4910   22.0930    5.7300 C   0  0  0  0  0  0  0  0  0  0  0  0
  -36.3030   20.8110    5.5330 C   0  0  0  0  0  0  0  0  0  0  0  0
  -37.3380   20.6350    6.6510 C   0  0  0  0  0  0  0  0  0  0  0  0
  -38.7660   20.5390    6.1150 C   0  0  0  0  0  0  0  0  0  0  0  0
  -39.7840   21.1950    7.0170 C   0  0  0  0  0  0  0  0  0  0  0  0
  -39.9390   22.3960    7.1730 O   0  0  0  0  0  0  0  0  0  0  0  0
  -40.5450   20.2500    7.6260 O   0  0  0  0  0  0  0  0  0  0  0  0
  -33.9365   22.5415   12.3677 H   0  0  0  0  0  0  0  0  0  0  0  0
  -32.7414   22.5815   11.0273 H   0  0  0  0  0  0  0  0  0  0  0  0
  -34.1295   23.7215   11.0273 H   0  0  0  0  0  0  0  0  0  0  0  0
  -35.6967   21.9573   10.6246 H   0  0  0  0  0  0  0  0  0  0  0  0
  -34.3006   21.7285    9.4687 H   0  0  0  0  0  0  0  0  0  0  0  0
  -33.6756   20.2447   11.7841 H   0  0  0  0  0  0  0  0  0  0  0  0
  -35.4195   19.9005   11.3687 H   0  0  0  0  0  0  0  0  0  0  0  0
  -32.9292   19.1100    9.9681 H   0  0  0  0  0  0  0  0  0  0  0  0
  -34.5699   18.3502    9.9972 H   0  0  0  0  0  0  0  0  0  0  0  0
  -35.3234   19.5425    8.2124 H   0  0  0  0  0  0  0  0  0  0  0  0
  -34.2084   20.9654    8.6187 H   0  0  0  0  0  0  0  0  0  0  0  0
  -33.6090   18.5796    6.8405 H   0  0  0  0  0  0  0  0  0  0  0  0
  -31.7022   19.7643    6.1445 H   0  0  0  0  0  0  0  0  0  0  0  0
  -32.5153   21.7330    8.4180 H   0  0  0  0  0  0  0  0  0  0  0  0
  -30.8053   21.3025    8.0023 H   0  0  0  0  0  0  0  0  0  0  0  0
  -31.0695   22.4880    5.7681 H   0  0  0  0  0  0  0  0  0  0  0  0
  -32.4252   24.4384    5.8988 H   0  0  0  0  0  0  0  0  0  0  0  0
  -33.5040   23.0797    8.4810 H   0  0  0  0  0  0  0  0  0  0  0  0
  -33.2594   24.8740    8.2642 H   0  0  0  0  0  0  0  0  0  0  0  0
  -35.5329   24.7026    7.9702 H   0  0  0  0  0  0  0  0  0  0  0  0
  -34.9093   24.5363    6.2628 H   0  0  0  0  0  0  0  0  0  0  0  0
  -35.3358   22.0490    7.8757 H   0  0  0  0  0  0  0  0  0  0  0  0
  -36.7781   22.9446    7.2054 H   0  0  0  0  0  0  0  0  0  0  0  0
  -35.7856   22.8152    4.9544 H   0  0  0  0  0  0  0  0  0  0  0  0
  -34.4281   21.8187    5.6597 H   0  0  0  0  0  0  0  0  0  0  0  0
  -36.8243   20.8611    4.5656 H   0  0  0  0  0  0  0  0  0  0  0  0
  -35.6138   19.9540    5.5572 H   0  0  0  0  0  0  0  0  0  0  0  0
  -37.1061   19.7133    7.2048 H   0  0  0  0  0  0  0  0  0  0  0  0
  -37.2831   21.5210    7.3006 H   0  0  0  0  0  0  0  0  0  0  0  0
  -38.8038   21.0285    5.1306 H   0  0  0  0  0  0  0  0  0  0  0  0
  -39.0220   19.4709    6.0547 H   0  0  0  0  0  0  0  0  0  0  0  0
  1  2  1  0
  2  3  1  0
  3  4  1  0
  4  5  1  0
  5  6  1  0
  6  7  2  0
  7  8  1  0
  8  9  1  0
  9 10  2  0
 10 11  1  0
 11 12  1  0
 12 13  1  0
 13 14  1  0
 14 15  1  0
 15 16  1  0
 16 17  1  0
 17 18  1  0
 18 19  2  0
 18 20  1  0
  1 21  1  0
  1 22  1  0
  1 23  1  0
  2 24  1  0
  2 25  1  0
  3 26  1  0
  3 27  1  0
  4 28  1  0
  4 29  1  0
  5 30  1  0
  5 31  1  0
  6 32  1  0
  7 33  1  0
  8 34  1  0
  8 35  1  0
  9 36  1  0
 10 37  1  0
 11 38  1  0
 11 39  1  0
 12 40  1  0
 12 41  1  0
 13 42  1  0
 13 43  1  0
 14 44  1  0
 14 45  1  0
 15 46  1  0
 15 47  1  0
 16 48  1  0
 16 49  1  0
 17 50  1  0
 17 51  1  0
M  CHG  1  20  -1
M  END
>  <meeko>  (16) 
{"is_sidechain": [false], "free_energy": -6.168, "intermolecular_energy": -11.047, "internal_energy": -2.68}

$$$$
linoleate_Nlobe_run02
     RDKit          3D

 51 50  0  0  0  0  0  0  0  0999 V2000
  -33.0540   18.2670    6.9840 C   0  0  0  0  0  0  0  0  0  0  0  0
  -32.9190   19.3520    5.9270 C   0  0  0  0  0  0  0  0  0  0  0  0
  -32.2430   20.6250    6.4420 C   0  0  0  0  0  0  0  0  0  0  0  0
  -32.7150   21.8940    5.7260 C   0  0  0  0  0  0  0  0  0  0  0  0
  -31.8750   23.1080    6.1430 C   0  0  0  0  0  0  0  0  0  0  0  0
  -32.5970   24.2200    6.8550 C   0  0  0  0  0  0  0  0  0  0  0  0
  -32.8920   24.2940    8.1630 C   0  0  0  0  0  0  0  0  0  0  0  0
  -32.5300   23.2260    9.1560 C   0  0  0  0  0  0  0  0  0  0  0  0
  -33.5760   23.0900   10.2230 C   0  0  0  0  0  0  0  0  0  0  0  0
  -34.3730   22.0180   10.3510 C   0  0  0  0  0  0  0  0  0  0  0  0
  -34.3160   20.8220    9.4430 C   0  0  0  0  0  0  0  0  0  0  0  0
  -35.4450   20.7990    8.4070 C   0  0  0  0  0  0  0  0  0  0  0  0
  -35.7960   22.1870    7.8610 C   0  0  0  0  0  0  0  0  0  0  0  0
  -36.2620   22.1650    6.4020 C   0  0  0  0  0  0  0  0  0  0  0  0
  -36.3530   20.7540    5.8160 C   0  0  0  0  0  0  0  0  0  0  0  0
  -37.8110   20.3610    5.5430 C   0  0  0  0  0  0  0  0  0  0  0  0
  -38.5110   19.8180    6.7880 C   0  0  0  0  0  0  0  0  0  0  0  0
  -39.8230   20.5050    7.0780 C   0  0  0  0  0  0  0  0  0  0  0  0
  -40.8420   19.9690    7.4860 O   0  0  0  0  0  0  0  0  0  0  0  0
  -39.7140   21.8380    6.8470 O   0  0  0  0  0  0  0  0  0  0  0  0
  -32.9975   18.7207    7.9845 H   0  0  0  0  0  0  0  0  0  0  0  0
  -34.0223   17.7586    6.8660 H   0  0  0  0  0  0  0  0  0  0  0  0
  -32.2398   17.5368    6.8660 H   0  0  0  0  0  0  0  0  0  0  0  0
  -32.3221   18.9536    5.0933 H   0  0  0  0  0  0  0  0  0  0  0  0
  -33.9370   19.6293    5.6159 H   0  0  0  0  0  0  0  0  0  0  0  0
  -32.4627   20.7273    7.5150 H   0  0  0  0  0  0  0  0  0  0  0  0
  -31.1652   20.5230    6.2474 H   0  0  0  0  0  0  0  0  0  0  0  0
  -32.6224   21.7491    4.6395 H   0  0  0  0  0  0  0  0  0  0  0  0
  -33.7628   22.0823    6.0029 H   0  0  0  0  0  0  0  0  0  0  0  0
  -31.0779   22.7479    6.8101 H   0  0  0  0  0  0  0  0  0  0  0  0
  -31.5217   23.5513    5.2003 H   0  0  0  0  0  0  0  0  0  0  0  0
  -32.9197   25.0684    6.2336 H   0  0  0  0  0  0  0  0  0  0  0  0
  -33.4270   25.1836    8.5267 H   0  0  0  0  0  0  0  0  0  0  0  0
  -32.4308   22.2660    8.6282 H   0  0  0  0  0  0  0  0  0  0  0  0
  -31.5816   23.5085    9.6364 H   0  0  0  0  0  0  0  0  0  0  0  0
  -33.6963   23.9151   10.9404 H   0  0  0  0  0  0  0  0  0  0  0  0
  -35.1103   22.0146   11.1673 H   0  0  0  0  0  0  0  0  0  0  0  0
  -33.3531   20.8318    8.9112 H   0  0  0  0  0  0  0  0  0  0  0  0
  -34.4301   19.9270   10.0722 H   0  0  0  0  0  0  0  0  0  0  0  0
  -35.1341   20.1616    7.5661 H   0  0  0  0  0  0  0  0  0  0  0  0
  -36.3422   20.4114    8.9119 H   0  0  0  0  0  0  0  0  0  0  0  0
  -36.6015   22.6114    8.4783 H   0  0  0  0  0  0  0  0  0  0  0  0
  -34.8793   22.7937    7.9007 H   0  0  0  0  0  0  0  0  0  0  0  0
  -37.2569   22.6309    6.3463 H   0  0  0  0  0  0  0  0  0  0  0  0
  -35.5131   22.7145    5.8128 H   0  0  0  0  0  0  0  0  0  0  0  0
  -35.7892   20.7202    4.8721 H   0  0  0  0  0  0  0  0  0  0  0  0
  -35.9313   20.0458    6.5444 H   0  0  0  0  0  0  0  0  0  0  0  0
  -38.3561   21.2490    5.1903 H   0  0  0  0  0  0  0  0  0  0  0  0
  -37.8071   19.5632    4.7857 H   0  0  0  0  0  0  0  0  0  0  0  0
  -38.7029   18.7448    6.6414 H   0  0  0  0  0  0  0  0  0  0  0  0
  -37.8470   20.0051    7.6448 H   0  0  0  0  0  0  0  0  0  0  0  0
  1  2  1  0
  2  3  1  0
  3  4  1  0
  4  5  1  0
  5  6  1  0
  6  7  2  0
  7  8  1  0
  8  9  1  0
  9 10  2  0
 10 11  1  0
 11 12  1  0
 12 13  1  0
 13 14  1  0
 14 15  1  0
 15 16  1  0
 16 17  1  0
 17 18  1  0
 18 19  2  0
 18 20  1  0
  1 21  1  0
  1 22  1  0
  1 23  1  0
  2 24  1  0
  2 25  1  0
  3 26  1  0
  3 27  1  0
  4 28  1  0
  4 29  1  0
  5 30  1  0
  5 31  1  0
  6 32  1  0
  7 33  1  0
  8 34  1  0
  8 35  1  0
  9 36  1  0
 10 37  1  0
 11 38  1  0
 11 39  1  0
 12 40  1  0
 12 41  1  0
 13 42  1  0
 13 43  1  0
 14 44  1  0
 14 45  1  0
 15 46  1  0
 15 47  1  0
 16 48  1  0
 16 49  1  0
 17 50  1  0
 17 51  1  0
M  CHG  1  20  -1
M  END
>  <meeko>  (17) 
{"is_sidechain": [false], "free_energy": -6.166, "intermolecular_energy": -11.01, "internal_energy": -2.713}

$$$$
linoleate_Nlobe_run02
     RDKit          3D

 51 50  0  0  0  0  0  0  0  0999 V2000
  -35.4090   24.0930    7.2800 C   0  0  0  0  0  0  0  0  0  0  0  0
  -33.9410   24.0890    6.8820 C   0  0  0  0  0  0  0  0  0  0  0  0
  -33.0990   25.1180    7.6410 C   0  0  0  0  0  0  0  0  0  0  0  0
  -32.0610   24.4850    8.5720 C   0  0  0  0  0  0  0  0  0  0  0  0
  -32.5240   23.1060    9.0580 C   0  0  0  0  0  0  0  0  0  0  0  0
  -33.1540   23.0440   10.4240 C   0  0  0  0  0  0  0  0  0  0  0  0
  -34.2490   22.3590   10.7860 C   0  0  0  0  0  0  0  0  0  0  0  0
  -35.0490   21.5120    9.8360 C   0  0  0  0  0  0  0  0  0  0  0  0
  -34.3290   20.2420    9.4910 C   0  0  0  0  0  0  0  0  0  0  0  0
  -34.1790   19.7880    8.2380 C   0  0  0  0  0  0  0  0  0  0  0  0
  -34.7120   20.4950    7.0250 C   0  0  0  0  0  0  0  0  0  0  0  0
  -33.8780   20.2410    5.7640 C   0  0  0  0  0  0  0  0  0  0  0  0
  -34.5410   20.7590    4.4830 C   0  0  0  0  0  0  0  0  0  0  0  0
  -35.9570   21.2990    4.7100 C   0  0  0  0  0  0  0  0  0  0  0  0
  -37.0490   20.4060    4.1140 C   0  0  0  0  0  0  0  0  0  0  0  0
  -38.3970   20.6470    4.8030 C   0  0  0  0  0  0  0  0  0  0  0  0
  -38.3150   20.4790    6.3200 C   0  0  0  0  0  0  0  0  0  0  0  0
  -39.5940   20.8530    7.0290 C   0  0  0  0  0  0  0  0  0  0  0  0
  -40.3190   20.0940    7.6550 O   0  0  0  0  0  0  0  0  0  0  0  0
  -39.8270   22.1840    6.9010 O   0  0  0  0  0  0  0  0  0  0  0  0
  -35.4915   24.0932    8.3769 H   0  0  0  0  0  0  0  0  0  0  0  0
  -35.8961   24.9925    6.8755 H   0  0  0  0  0  0  0  0  0  0  0  0
  -35.9010   23.1962    6.8755 H   0  0  0  0  0  0  0  0  0  0  0  0
  -33.5294   23.0883    7.0800 H   0  0  0  0  0  0  0  0  0  0  0  0
  -33.8944   24.3562    5.8160 H   0  0  0  0  0  0  0  0  0  0  0  0
  -32.5727   25.7471    6.9080 H   0  0  0  0  0  0  0  0  0  0  0  0
  -33.7875   25.7012    8.2702 H   0  0  0  0  0  0  0  0  0  0  0  0
  -31.1110   24.3742    8.0286 H   0  0  0  0  0  0  0  0  0  0  0  0
  -31.9315   25.1387    9.4471 H   0  0  0  0  0  0  0  0  0  0  0  0
  -33.2611   22.7283    8.3341 H   0  0  0  0  0  0  0  0  0  0  0  0
  -31.6058   22.5054    9.1370 H   0  0  0  0  0  0  0  0  0  0  0  0
  -32.6600   23.6269   11.2154 H   0  0  0  0  0  0  0  0  0  0  0  0
  -34.5791   22.4203   11.8335 H   0  0  0  0  0  0  0  0  0  0  0  0
  -36.0117   21.2608   10.3052 H   0  0  0  0  0  0  0  0  0  0  0  0
  -35.2022   22.0842    8.9091 H   0  0  0  0  0  0  0  0  0  0  0  0
  -33.8997   19.6495   10.3124 H   0  0  0  0  0  0  0  0  0  0  0  0
  -33.6344   18.8437    8.0903 H   0  0  0  0  0  0  0  0  0  0  0  0
  -35.7393   20.1475    6.8408 H   0  0  0  0  0  0  0  0  0  0  0  0
  -34.6724   21.5747    7.2317 H   0  0  0  0  0  0  0  0  0  0  0  0
  -32.9062   20.7428    5.8814 H   0  0  0  0  0  0  0  0  0  0  0  0
  -33.7722   19.1512    5.6579 H   0  0  0  0  0  0  0  0  0  0  0  0
  -33.9203   21.5684    4.0712 H   0  0  0  0  0  0  0  0  0  0  0  0
  -34.6236   19.9077    3.7913 H   0  0  0  0  0  0  0  0  0  0  0  0
  -36.1285   21.3844    5.7932 H   0  0  0  0  0  0  0  0  0  0  0  0
  -36.0195   22.2728    4.2022 H   0  0  0  0  0  0  0  0  0  0  0  0
  -37.1491   20.6284    3.0414 H   0  0  0  0  0  0  0  0  0  0  0  0
  -36.7621   19.3550    4.2662 H   0  0  0  0  0  0  0  0  0  0  0  0
  -38.7302   21.6710    4.5786 H   0  0  0  0  0  0  0  0  0  0  0  0
  -39.1071   19.8989    4.4209 H   0  0  0  0  0  0  0  0  0  0  0  0
  -38.0861   19.4265    6.5435 H   0  0  0  0  0  0  0  0  0  0  0  0
  -37.5293   21.1583    6.6824 H   0  0  0  0  0  0  0  0  0  0  0  0
  1  2  1  0
  2  3  1  0
  3  4  1  0
  4  5  1  0
  5  6  1  0
  6  7  2  0
  7  8  1  0
  8  9  1  0
  9 10  2  0
 10 11  1  0
 11 12  1  0
 12 13  1  0
 13 14  1  0
 14 15  1  0
 15 16  1  0
 16 17  1  0
 17 18  1  0
 18 19  2  0
 18 20  1  0
  1 21  1  0
  1 22  1  0
  1 23  1  0
  2 24  1  0
  2 25  1  0
  3 26  1  0
  3 27  1  0
  4 28  1  0
  4 29  1  0
  5 30  1  0
  5 31  1  0
  6 32  1  0
  7 33  1  0
  8 34  1  0
  8 35  1  0
  9 36  1  0
 10 37  1  0
 11 38  1  0
 11 39  1  0
 12 40  1  0
 12 41  1  0
 13 42  1  0
 13 43  1  0
 14 44  1  0
 14 45  1  0
 15 46  1  0
 15 47  1  0
 16 48  1  0
 16 49  1  0
 17 50  1  0
 17 51  1  0
M  CHG  1  20  -1
M  END
>  <meeko>  (18) 
{"is_sidechain": [false], "free_energy": -6.148, "intermolecular_energy": -11.513, "internal_energy": -2.177}

$$$$
linoleate_Nlobe_run02
     RDKit          3D

 51 50  0  0  0  0  0  0  0  0999 V2000
  -34.6740   20.5200    9.4720 C   0  0  0  0  0  0  0  0  0  0  0  0
  -34.4080   21.7630   10.3080 C   0  0  0  0  0  0  0  0  0  0  0  0
  -34.6860   23.0710    9.5640 C   0  0  0  0  0  0  0  0  0  0  0  0
  -35.4700   22.8740    8.2630 C   0  0  0  0  0  0  0  0  0  0  0  0
  -34.9930   23.8470    7.1780 C   0  0  0  0  0  0  0  0  0  0  0  0
  -33.7590   24.6530    7.4840 C   0  0  0  0  0  0  0  0  0  0  0  0
  -32.5050   24.4130    7.0680 C   0  0  0  0  0  0  0  0  0  0  0  0
  -32.1290   23.2490    6.1960 C   0  0  0  0  0  0  0  0  0  0  0  0
  -31.8770   22.0120    7.0070 C   0  0  0  0  0  0  0  0  0  0  0  0
  -32.3260   20.7940    6.6680 C   0  0  0  0  0  0  0  0  0  0  0  0
  -33.1350   20.5180    5.4330 C   0  0  0  0  0  0  0  0  0  0  0  0
  -34.6400   20.4260    5.7070 C   0  0  0  0  0  0  0  0  0  0  0  0
  -35.4940   21.1370    4.6520 C   0  0  0  0  0  0  0  0  0  0  0  0
  -36.8120   20.4160    4.3520 C   0  0  0  0  0  0  0  0  0  0  0  0
  -37.8090   20.4660    5.5120 C   0  0  0  0  0  0  0  0  0  0  0  0
  -39.2540   20.4050    5.0020 C   0  0  0  0  0  0  0  0  0  0  0  0
  -39.3630   20.7440    3.5170 C   0  0  0  0  0  0  0  0  0  0  0  0
  -40.4210   19.9390    2.8000 C   0  0  0  0  0  0  0  0  0  0  0  0
  -40.6790   19.9900    1.6080 O   0  0  0  0  0  0  0  0  0  0  0  0
  -41.0440   19.1060    3.6720 O   0  0  0  0  0  0  0  0  0  0  0  0
  -34.8574   19.6632   10.1370 H   0  0  0  0  0  0  0  0  0  0  0  0
  -35.5567   20.6870    8.8373 H   0  0  0  0  0  0  0  0  0  0  0  0
  -33.8002   20.3111    8.8373 H   0  0  0  0  0  0  0  0  0  0  0  0
  -35.0507   21.7266   11.2000 H   0  0  0  0  0  0  0  0  0  0  0  0
  -33.3381   21.7577   10.5636 H   0  0  0  0  0  0  0  0  0  0  0  0
  -35.2665   23.7317   10.2247 H   0  0  0  0  0  0  0  0  0  0  0  0
  -33.7120   23.5055    9.2945 H   0  0  0  0  0  0  0  0  0  0  0  0
  -35.3255   21.8425    7.9092 H   0  0  0  0  0  0  0  0  0  0  0  0
  -36.5339   23.0686    8.4635 H   0  0  0  0  0  0  0  0  0  0  0  0
  -34.7903   23.2598    6.2702 H   0  0  0  0  0  0  0  0  0  0  0  0
  -35.8019   24.5858    7.0781 H   0  0  0  0  0  0  0  0  0  0  0  0
  -33.9005   25.5389    8.1205 H   0  0  0  0  0  0  0  0  0  0  0  0
  -31.7106   25.1058    7.3826 H   0  0  0  0  0  0  0  0  0  0  0  0
  -32.9490   23.0522    5.4896 H   0  0  0  0  0  0  0  0  0  0  0  0
  -31.2029   23.5046    5.6603 H   0  0  0  0  0  0  0  0  0  0  0  0
  -31.2905   22.1093    7.9325 H   0  0  0  0  0  0  0  0  0  0  0  0
  -32.0882   19.9499    7.3320 H   0  0  0  0  0  0  0  0  0  0  0  0
  -32.9597   21.3295    4.7113 H   0  0  0  0  0  0  0  0  0  0  0  0
  -32.8130   19.5416    5.0420 H   0  0  0  0  0  0  0  0  0  0  0  0
  -34.9262   19.3641    5.7298 H   0  0  0  0  0  0  0  0  0  0  0  0
  -34.8268   20.9271    6.6683 H   0  0  0  0  0  0  0  0  0  0  0  0
  -35.7247   22.1497    5.0143 H   0  0  0  0  0  0  0  0  0  0  0  0
  -34.9119   21.1529    3.7188 H   0  0  0  0  0  0  0  0  0  0  0  0
  -37.2755   20.8879    3.4731 H   0  0  0  0  0  0  0  0  0  0  0  0
  -36.5707   19.3573    4.1762 H   0  0  0  0  0  0  0  0  0  0  0  0
  -37.6271   19.6104    6.1790 H   0  0  0  0  0  0  0  0  0  0  0  0
  -37.6691   21.4141    6.0519 H   0  0  0  0  0  0  0  0  0  0  0  0
  -39.6421   19.3882    5.1615 H   0  0  0  0  0  0  0  0  0  0  0  0
  -39.8379   21.1519    5.5598 H   0  0  0  0  0  0  0  0  0  0  0  0
  -39.6095   21.8115    3.4191 H   0  0  0  0  0  0  0  0  0  0  0  0
  -38.3958   20.4996    3.0536 H   0  0  0  0  0  0  0  0  0  0  0  0
  1  2  1  0
  2  3  1  0
  3  4  1  0
  4  5  1  0
  5  6  1  0
  6  7  2  0
  7  8  1  0
  8  9  1  0
  9 10  2  0
 10 11  1  0
 11 12  1  0
 12 13  1  0
 13 14  1  0
 14 15  1  0
 15 16  1  0
 16 17  1  0
 17 18  1  0
 18 19  2  0
 18 20  1  0
  1 21  1  0
  1 22  1  0
  1 23  1  0
  2 24  1  0
  2 25  1  0
  3 26  1  0
  3 27  1  0
  4 28  1  0
  4 29  1  0
  5 30  1  0
  5 31  1  0
  6 32  1  0
  7 33  1  0
  8 34  1  0
  8 35  1  0
  9 36  1  0
 10 37  1  0
 11 38  1  0
 11 39  1  0
 12 40  1  0
 12 41  1  0
 13 42  1  0
 13 43  1  0
 14 44  1  0
 14 45  1  0
 15 46  1  0
 15 47  1  0
 16 48  1  0
 16 49  1  0
 17 50  1  0
 17 51  1  0
M  CHG  1  20  -1
M  END
>  <meeko>  (19) 
{"is_sidechain": [false], "free_energy": -6.085, "intermolecular_energy": -11.232, "internal_energy": -2.344}

$$$$
linoleate_Nlobe_run02
     RDKit          3D

 51 50  0  0  0  0  0  0  0  0999 V2000
  -34.0410   22.1550   10.5490 C   0  0  0  0  0  0  0  0  0  0  0  0
  -34.7900   20.8940   10.9510 C   0  0  0  0  0  0  0  0  0  0  0  0
  -34.1360   19.6070   10.4450 C   0  0  0  0  0  0  0  0  0  0  0  0
  -34.2900   19.4020    8.9350 C   0  0  0  0  0  0  0  0  0  0  0  0
  -32.9220   19.3000    8.2490 C   0  0  0  0  0  0  0  0  0  0  0  0
  -32.3900   20.5530    7.6070 C   0  0  0  0  0  0  0  0  0  0  0  0
  -32.4380   20.8870    6.3070 C   0  0  0  0  0  0  0  0  0  0  0  0
  -33.0570   20.0160    5.2510 C   0  0  0  0  0  0  0  0  0  0  0  0
  -33.9740   20.8000    4.3600 C   0  0  0  0  0  0  0  0  0  0  0  0
  -35.2860   20.9570    4.5940 C   0  0  0  0  0  0  0  0  0  0  0  0
  -35.9980   20.3670    5.7780 C   0  0  0  0  0  0  0  0  0  0  0  0
  -37.4610   20.8110    5.8830 C   0  0  0  0  0  0  0  0  0  0  0  0
  -37.7080   21.8220    7.0080 C   0  0  0  0  0  0  0  0  0  0  0  0
  -36.4540   22.1290    7.8330 C   0  0  0  0  0  0  0  0  0  0  0  0
  -35.9580   23.5680    7.6690 C   0  0  0  0  0  0  0  0  0  0  0  0
  -34.5500   23.6020    7.0630 C   0  0  0  0  0  0  0  0  0  0  0  0
  -33.6830   24.7080    7.6630 C   0  0  0  0  0  0  0  0  0  0  0  0
  -32.2040   24.4690    7.4770 C   0  0  0  0  0  0  0  0  0  0  0  0
  -31.3910   24.2610    8.3640 O   0  0  0  0  0  0  0  0  0  0  0  0
  -31.8900   24.4880    6.1560 O   0  0  0  0  0  0  0  0  0  0  0  0
  -33.7204   22.6947   11.4523 H   0  0  0  0  0  0  0  0  0  0  0  0
  -33.1582   21.8825    9.9520 H   0  0  0  0  0  0  0  0  0  0  0  0
  -34.7026   22.7999    9.9520 H   0  0  0  0  0  0  0  0  0  0  0  0
  -34.8366   20.8521   12.0492 H   0  0  0  0  0  0  0  0  0  0  0  0
  -35.7882   20.9511   10.4924 H   0  0  0  0  0  0  0  0  0  0  0  0
  -33.0631   19.6430   10.6848 H   0  0  0  0  0  0  0  0  0  0  0  0
  -34.6438   18.7668   10.9412 H   0  0  0  0  0  0  0  0  0  0  0  0
  -34.8527   18.4743    8.7540 H   0  0  0  0  0  0  0  0  0  0  0  0
  -34.8262   20.2672    8.5180 H   0  0  0  0  0  0  0  0  0  0  0  0
  -32.1926   18.9790    9.0072 H   0  0  0  0  0  0  0  0  0  0  0  0
  -33.0675   18.5913    7.4204 H   0  0  0  0  0  0  0  0  0  0  0  0
  -31.9069   21.2777    8.2789 H   0  0  0  0  0  0  0  0  0  0  0  0
  -32.0012   21.8486    5.9994 H   0  0  0  0  0  0  0  0  0  0  0  0
  -32.2574   19.5726    4.6395 H   0  0  0  0  0  0  0  0  0  0  0  0
  -33.6471   19.2338    5.7510 H   0  0  0  0  0  0  0  0  0  0  0  0
  -33.5467   21.2733    3.4636 H   0  0  0  0  0  0  0  0  0  0  0  0
  -35.8733   21.5512    3.8785 H   0  0  0  0  0  0  0  0  0  0  0  0
  -35.9703   19.2707    5.6924 H   0  0  0  0  0  0  0  0  0  0  0  0
  -35.4818   20.7231    6.6817 H   0  0  0  0  0  0  0  0  0  0  0  0
  -37.7555   21.2718    4.9285 H   0  0  0  0  0  0  0  0  0  0  0  0
  -38.0577   19.9158    6.1124 H   0  0  0  0  0  0  0  0  0  0  0  0
  -38.0703   22.7597    6.5614 H   0  0  0  0  0  0  0  0  0  0  0  0
  -38.4460   21.3758    7.6908 H   0  0  0  0  0  0  0  0  0  0  0  0
  -36.6843   21.9581    8.8949 H   0  0  0  0  0  0  0  0  0  0  0  0
  -35.6550   21.4658    7.4700 H   0  0  0  0  0  0  0  0  0  0  0  0
  -36.6473   24.1121    7.0065 H   0  0  0  0  0  0  0  0  0  0  0  0
  -35.9220   24.0400    8.6620 H   0  0  0  0  0  0  0  0  0  0  0  0
  -34.0631   22.6329    7.2467 H   0  0  0  0  0  0  0  0  0  0  0  0
  -34.6534   23.8042    5.9867 H   0  0  0  0  0  0  0  0  0  0  0  0
  -33.9470   25.6604    7.1800 H   0  0  0  0  0  0  0  0  0  0  0  0
  -33.8783   24.7265    8.7454 H   0  0  0  0  0  0  0  0  0  0  0  0
  1  2  1  0
  2  3  1  0
  3  4  1  0
  4  5  1  0
  5  6  1  0
  6  7  2  0
  7  8  1  0
  8  9  1  0
  9 10  2  0
 10 11  1  0
 11 12  1  0
 12 13  1  0
 13 14  1  0
 14 15  1  0
 15 16  1  0
 16 17  1  0
 17 18  1  0
 18 19  2  0
 18 20  1  0
  1 21  1  0
  1 22  1  0
  1 23  1  0
  2 24  1  0
  2 25  1  0
  3 26  1  0
  3 27  1  0
  4 28  1  0
  4 29  1  0
  5 30  1  0
  5 31  1  0
  6 32  1  0
  7 33  1  0
  8 34  1  0
  8 35  1  0
  9 36  1  0
 10 37  1  0
 11 38  1  0
 11 39  1  0
 12 40  1  0
 12 41  1  0
 13 42  1  0
 13 43  1  0
 14 44  1  0
 14 45  1  0
 15 46  1  0
 15 47  1  0
 16 48  1  0
 16 49  1  0
 17 50  1  0
 17 51  1  0
M  CHG  1  20  -1
M  END
>  <meeko>  (20) 
{"is_sidechain": [false], "free_energy": -6.053, "intermolecular_energy": -10.691, "internal_energy": -2.826}

$$$$
