linoleate_Nlobe_run01
     RDKit          3D

 51 50  0  0  0  0  0  0  0  0999 V2000
  -33.9640   22.5930   11.1050 C   0  0  0  0  0  0  0  0  0  0  0  0
  -34.7950   21.4430   10.5570 C   0  0  0  0  0  0  0  0  0  0  0  0
  -34.1760   20.7720    9.3290 C   0  0  0  0  0  0  0  0  0  0  0  0
  -35.1990   20.4390    8.2390 C   0  0  0  0  0  0  0  0  0  0  0  0
  -36.1880   21.5940    8.0380 C   0  0  0  0  0  0  0  0  0  0  0  0
  -35.9820   22.4600    6.8250 C   0  0  0  0  0  0  0  0  0  0  0  0
  -35.2990   23.6130    6.7530 C   0  0  0  0  0  0  0  0  0  0  0  0
  -34.6070   24.2410    7.9290 C   0  0  0  0  0  0  0  0  0  0  0  0
  -33.3220   24.9010    7.5240 C   0  0  0  0  0  0  0  0  0  0  0  0
  -32.1230   24.3040    7.5960 C   0  0  0  0  0  0  0  0  0  0  0  0
  -31.9190   22.8990    8.0900 C   0  0  0  0  0  0  0  0  0  0  0  0
  -31.4250   21.9430    6.9990 C   0  0  0  0  0  0  0  0  0  0  0  0
  -32.1170   22.1560    5.6480 C   0  0  0  0  0  0  0  0  0  0  0  0
  -33.1320   21.0600    5.3070 C   0  0  0  0  0  0  0  0  0  0  0  0
  -32.6680   20.1310    4.1830 C   0  0  0  0  0  0  0  0  0  0  0  0
  -32.3100   18.7420    4.7260 C   0  0  0  0  0  0  0  0  0  0  0  0
  -32.8300   18.5190    6.1460 C   0  0  0  0  0  0  0  0  0  0  0  0
  -31.7280   18.2840    7.1510 C   0  0  0  0  0  0  0  0  0  0  0  0
  -31.7850   18.5140    8.3490 O   0  0  0  0  0  0  0  0  0  0  0  0
  -30.6450   17.7410    6.5380 O   0  0  0  0  0  0  0  0  0  0  0  0
  -33.9825   22.5674   12.2045 H   0  0  0  0  0  0  0  0  0  0  0  0
  -32.9263   22.4956   10.7534 H   0  0  0  0  0  0  0  0  0  0  0  0
  -34.3822   23.5477   10.7534 H   0  0  0  0  0  0  0  0  0  0  0  0
  -34.9064   20.6865   11.3478 H   0  0  0  0  0  0  0  0  0  0  0  0
  -35.7613   21.8640   10.2424 H   0  0  0  0  0  0  0  0  0  0  0  0
  -33.4215   21.4503    8.9039 H   0  0  0  0  0  0  0  0  0  0  0  0
  -33.7370   19.8209    9.6647 H   0  0  0  0  0  0  0  0  0  0  0  0
  -34.6686   20.2517    7.2937 H   0  0  0  0  0  0  0  0  0  0  0  0
  -35.7625   19.5468    8.5497 H   0  0  0  0  0  0  0  0  0  0  0  0
  -37.1967   21.1604    7.9700 H   0  0  0  0  0  0  0  0  0  0  0  0
  -36.0302   22.2612    8.8982 H   0  0  0  0  0  0  0  0  0  0  0  0
  -36.4438   22.1080    5.8908 H   0  0  0  0  0  0  0  0  0  0  0  0
  -35.2430   24.1253    5.7812 H   0  0  0  0  0  0  0  0  0  0  0  0
  -35.2720   24.9963    8.3733 H   0  0  0  0  0  0  0  0  0  0  0  0
  -34.3735   23.4484    8.6551 H   0  0  0  0  0  0  0  0  0  0  0  0
  -33.3656   25.9333    7.1465 H   0  0  0  0  0  0  0  0  0  0  0  0
  -31.2390   24.8748    7.2754 H   0  0  0  0  0  0  0  0  0  0  0  0
  -31.1764   22.9177    8.9013 H   0  0  0  0  0  0  0  0  0  0  0  0
  -32.8957   22.5274    8.4335 H   0  0  0  0  0  0  0  0  0  0  0  0
  -30.3437   22.0946    6.8653 H   0  0  0  0  0  0  0  0  0  0  0  0
  -31.6623   20.9209    7.3293 H   0  0  0  0  0  0  0  0  0  0  0  0
  -32.6420   23.1223    5.6732 H   0  0  0  0  0  0  0  0  0  0  0  0
  -31.3358   22.1285    4.8741 H   0  0  0  0  0  0  0  0  0  0  0  0
  -33.3085   20.4553    6.2088 H   0  0  0  0  0  0  0  0  0  0  0  0
  -34.0465   21.5614    4.9574 H   0  0  0  0  0  0  0  0  0  0  0  0
  -33.4763   20.0302    3.4437 H   0  0  0  0  0  0  0  0  0  0  0  0
  -31.7708   20.5661    3.7186 H   0  0  0  0  0  0  0  0  0  0  0  0
  -32.7497   17.9804    4.0652 H   0  0  0  0  0  0  0  0  0  0  0  0
  -31.2130   18.6660    4.7550 H   0  0  0  0  0  0  0  0  0  0  0  0
  -33.4003   19.4080    6.4535 H   0  0  0  0  0  0  0  0  0  0  0  0
  -33.4552   17.6141    6.1277 H   0  0  0  0  0  0  0  0  0  0  0  0
  1  2  1  0
  2  3  1  0
  3  4  1  0
  4  5  1  0
  5  6  1  0
  6  7  2  0
  7  8  1  0
  8  9  1  0
  9 10  2  0
 10 11  1  0
 11 12  1  0
 12 13  1  0
 13 14  1  0
 14 15  1  0
 15 16  1  0
 16 17  1  0
 17 18  1  0
 18 19  2  0
 18 20  1  0
  1 21  1  0
  1 22  1  0
  1 23  1  0
  2 24  1  0
  2 25  1  0
  3 26  1  0
  3 27  1  0
  4 28  1  0
  4 29  1  0
  5 30  1  0
  5 31  1  0
  6 32  1  0
  7 33  1  0
  8 34  1  0
  8 35  1  0
  9 36  1  0
 10 37  1  0
 11 38  1  0
 11 39  1  0
 12 40  1  0
 12 41  1  0
 13 42  1  0
 13 43  1  0
 14 44  1  0
 14 45  1  0
 15 46  1  0
 15 47  1  0
 16 48  1  0
 16 49  1  0
 17 50  1  0
 17 51  1  0
M  CHG  1  20  -1
M  END
>  <meeko>  (1) 
{"is_sidechain": [false], "free_energy": -6.36, "intermolecular_energy": -11.565, "internal_energy": -2.934}

$$$$
linoleate_Nlobe_run01
     RDKit          3D

 51 50  0  0  0  0  0  0  0  0999 V2000
  -34.1020   22.7270   10.4250 C   0  0  0  0  0  0  0  0  0  0  0  0
  -34.6640   21.5540    9.6370 C   0  0  0  0  0  0  0  0  0  0  0  0
  -35.5540   21.9760    8.4660 C   0  0  0  0  0  0  0  0  0  0  0  0
  -35.5690   23.4890    8.2290 C   0  0  0  0  0  0  0  0  0  0  0  0
  -34.8270   23.8530    6.9370 C   0  0  0  0  0  0  0  0  0  0  0  0
  -33.5920   24.7020    7.0800 C   0  0  0  0  0  0  0  0  0  0  0  0
  -32.3280   24.3570    6.7890 C   0  0  0  0  0  0  0  0  0  0  0  0
  -31.9390   23.0080    6.2540 C   0  0  0  0  0  0  0  0  0  0  0  0
  -31.7280   22.0170    7.3610 C   0  0  0  0  0  0  0  0  0  0  0  0
  -31.9740   20.7040    7.2410 C   0  0  0  0  0  0  0  0  0  0  0  0
  -32.4890   20.0630    5.9840 C   0  0  0  0  0  0  0  0  0  0  0  0
  -34.0200   19.9930    5.9280 C   0  0  0  0  0  0  0  0  0  0  0  0
  -34.6180   20.7590    4.7430 C   0  0  0  0  0  0  0  0  0  0  0  0
  -36.0520   21.2380    4.9930 C   0  0  0  0  0  0  0  0  0  0  0  0
  -37.0860   20.5550    4.0930 C   0  0  0  0  0  0  0  0  0  0  0  0
  -38.4500   20.4650    4.7880 C   0  0  0  0  0  0  0  0  0  0  0  0
  -38.3240   20.2700    6.2980 C   0  0  0  0  0  0  0  0  0  0  0  0
  -39.2520   21.1580    7.0900 C   0  0  0  0  0  0  0  0  0  0  0  0
  -39.1100   22.3550    7.2870 O   0  0  0  0  0  0  0  0  0  0  0  0
  -40.3120   20.4410    7.5430 O   0  0  0  0  0  0  0  0  0  0  0  0
  -34.1987   22.5252   11.5020 H   0  0  0  0  0  0  0  0  0  0  0  0
  -33.0404   22.8641   10.1715 H   0  0  0  0  0  0  0  0  0  0  0  0
  -34.6604   23.6402   10.1715 H   0  0  0  0  0  0  0  0  0  0  0  0
  -33.8231   20.9658    9.2409 H   0  0  0  0  0  0  0  0  0  0  0  0
  -35.2919   20.9716   10.3273 H   0  0  0  0  0  0  0  0  0  0  0  0
  -35.1867   21.4836    7.5535 H   0  0  0  0  0  0  0  0  0  0  0  0
  -36.5826   21.6757    8.7147 H   0  0  0  0  0  0  0  0  0  0  0  0
  -36.6119   23.8303    8.1527 H   0  0  0  0  0  0  0  0  0  0  0  0
  -35.0623   23.9798    9.0730 H   0  0  0  0  0  0  0  0  0  0  0  0
  -34.5303   22.9136    6.4476 H   0  0  0  0  0  0  0  0  0  0  0  0
  -35.5346   24.4685    6.3622 H   0  0  0  0  0  0  0  0  0  0  0  0
  -33.7427   25.7206    7.4669 H   0  0  0  0  0  0  0  0  0  0  0  0
  -31.5346   25.1016    6.9508 H   0  0  0  0  0  0  0  0  0  0  0  0
  -32.7386   22.6413    5.5936 H   0  0  0  0  0  0  0  0  0  0  0  0
  -30.9935   23.1153    5.7021 H   0  0  0  0  0  0  0  0  0  0  0  0
  -31.3503   22.3883    8.3251 H   0  0  0  0  0  0  0  0  0  0  0  0
  -31.7880   20.0597    8.1130 H   0  0  0  0  0  0  0  0  0  0  0  0
  -32.1335   20.6470    5.1222 H   0  0  0  0  0  0  0  0  0  0  0  0
  -32.1125   19.0296    5.9648 H   0  0  0  0  0  0  0  0  0  0  0  0
  -34.3187   18.9374    5.8481 H   0  0  0  0  0  0  0  0  0  0  0  0
  -34.4018   20.4630    6.8463 H   0  0  0  0  0  0  0  0  0  0  0  0
  -33.9869   21.6369    4.5403 H   0  0  0  0  0  0  0  0  0  0  0  0
  -34.6500   20.0659    3.8895 H   0  0  0  0  0  0  0  0  0  0  0  0
  -36.3112   21.0307    6.0417 H   0  0  0  0  0  0  0  0  0  0  0  0
  -36.0804   22.3133    4.7629 H   0  0  0  0  0  0  0  0  0  0  0  0
  -37.1935   21.1354    3.1648 H   0  0  0  0  0  0  0  0  0  0  0  0
  -36.7381   19.5349    3.8733 H   0  0  0  0  0  0  0  0  0  0  0  0
  -39.0054   21.3951    4.5973 H   0  0  0  0  0  0  0  0  0  0  0  0
  -38.9765   19.5895    4.3801 H   0  0  0  0  0  0  0  0  0  0  0  0
  -38.5555   19.2213    6.5359 H   0  0  0  0  0  0  0  0  0  0  0  0
  -37.2949   20.5389    6.5783 H   0  0  0  0  0  0  0  0  0  0  0  0
  1  2  1  0
  2  3  1  0
  3  4  1  0
  4  5  1  0
  5  6  1  0
  6  7  2  0
  7  8  1  0
  8  9  1  0
  9 10  2  0
 10 11  1  0
 11 12  1  0
 12 13  1  0
 13 14  1  0
 14 15  1  0
 15 16  1  0
 16 17  1  0
 17 18  1  0
 18 19  2  0
 18 20  1  0
  1 21  1  0
  1 22  1  0
  1 23  1  0
  2 24  1  0
  2 25  1  0
  3 26  1  0
  3 27  1  0
  4 28  1  0
  4 29  1  0
  5 30  1  0
  5 31  1  0
  6 32  1  0
  7 33  1  0
  8 34  1  0
  8 35  1  0
  9 36  1  0
 10 37  1  0
 11 38  1  0
 11 39  1  0
 12 40  1  0
 12 41  1  0
 13 42  1  0
 13 43  1  0
 14 44  1  0
 14 45  1  0
 15 46  1  0
 15 47  1  0
 16 48  1  0
 16 49  1  0
 17 50  1  0
 17 51  1  0
M  CHG  1  20  -1
M  END
>  <meeko>  (2) 
{"is_sidechain": [false], "free_energy": -6.335, "intermolecular_energy": -11.646, "internal_energy": -2.807}

$$$$
linoleate_Nlobe_run01
     RDKit          3D

 51 50  0  0  0  0  0  0  0  0999 V2000
  -39.7010   20.3810    7.6120 C   0  0  0  0  0  0  0  0  0  0  0  0
  -38.6620   21.0080    6.6950 C   0  0  0  0  0  0  0  0  0  0  0  0
  -37.2650   21.0840    7.3160 C   0  0  0  0  0  0  0  0  0  0  0  0
  -36.7350   22.5150    7.4420 C   0  0  0  0  0  0  0  0  0  0  0  0
  -35.4270   22.6910    6.6620 C   0  0  0  0  0  0  0  0  0  0  0  0
  -34.6980   23.9950    6.8440 C   0  0  0  0  0  0  0  0  0  0  0  0
  -33.5680   24.2080    7.5360 C   0  0  0  0  0  0  0  0  0  0  0  0
  -32.8280   23.1250    8.2680 C   0  0  0  0  0  0  0  0  0  0  0  0
  -32.8140   23.3720    9.7480 C   0  0  0  0  0  0  0  0  0  0  0  0
  -33.6540   22.7790   10.6090 C   0  0  0  0  0  0  0  0  0  0  0  0
  -34.7120   21.7940   10.1990 C   0  0  0  0  0  0  0  0  0  0  0  0
  -34.6050   20.4550   10.9370 C   0  0  0  0  0  0  0  0  0  0  0  0
  -34.1200   19.3070   10.0450 C   0  0  0  0  0  0  0  0  0  0  0  0
  -34.1240   19.6570    8.5530 C   0  0  0  0  0  0  0  0  0  0  0  0
  -33.1300   18.8300    7.7330 C   0  0  0  0  0  0  0  0  0  0  0  0
  -32.3560   19.7130    6.7470 C   0  0  0  0  0  0  0  0  0  0  0  0
  -32.9500   19.6770    5.3400 C   0  0  0  0  0  0  0  0  0  0  0  0
  -32.9530   21.0260    4.6620 C   0  0  0  0  0  0  0  0  0  0  0  0
  -32.3410   22.0170    5.0290 O   0  0  0  0  0  0  0  0  0  0  0  0
  -33.7230   20.9850    3.5450 O   0  0  0  0  0  0  0  0  0  0  0  0
  -39.4161   20.5529    8.6605 H   0  0  0  0  0  0  0  0  0  0  0  0
  -40.6832   20.8373    7.4193 H   0  0  0  0  0  0  0  0  0  0  0  0
  -39.7551   19.2994    7.4193 H   0  0  0  0  0  0  0  0  0  0  0  0
  -38.6019   20.4076    5.7753 H   0  0  0  0  0  0  0  0  0  0  0  0
  -38.9852   22.0410    6.4989 H   0  0  0  0  0  0  0  0  0  0  0  0
  -37.3045   20.6367    8.3202 H   0  0  0  0  0  0  0  0  0  0  0  0
  -36.5812   20.5411    6.6469 H   0  0  0  0  0  0  0  0  0  0  0  0
  -37.4868   23.2126    7.0444 H   0  0  0  0  0  0  0  0  0  0  0  0
  -36.5383   22.7219    8.5043 H   0  0  0  0  0  0  0  0  0  0  0  0
  -34.7458   21.8835    6.9683 H   0  0  0  0  0  0  0  0  0  0  0  0
  -35.7194   22.6705    5.6018 H   0  0  0  0  0  0  0  0  0  0  0  0
  -35.1421   24.8739    6.3538 H   0  0  0  0  0  0  0  0  0  0  0  0
  -33.1622   25.2299    7.5689 H   0  0  0  0  0  0  0  0  0  0  0  0
  -33.3192   22.1606    8.0712 H   0  0  0  0  0  0  0  0  0  0  0  0
  -31.7879   23.1150    7.9100 H   0  0  0  0  0  0  0  0  0  0  0  0
  -32.0731   24.0792   10.1493 H   0  0  0  0  0  0  0  0  0  0  0  0
  -33.5632   23.0280   11.6766 H   0  0  0  0  0  0  0  0  0  0  0  0
  -35.6987   22.2321   10.4098 H   0  0  0  0  0  0  0  0  0  0  0  0
  -34.5725   21.5899    9.1271 H   0  0  0  0  0  0  0  0  0  0  0  0
  -33.8973   20.5718   11.7710 H   0  0  0  0  0  0  0  0  0  0  0  0
  -35.6155   20.1930   11.2837 H   0  0  0  0  0  0  0  0  0  0  0  0
  -33.0930   19.0454   10.3397 H   0  0  0  0  0  0  0  0  0  0  0  0
  -34.8172   18.4678   10.1852 H   0  0  0  0  0  0  0  0  0  0  0  0
  -35.1348   19.4815    8.1562 H   0  0  0  0  0  0  0  0  0  0  0  0
  -33.8207   20.7107    8.4653 H   0  0  0  0  0  0  0  0  0  0  0  0
  -32.4173   18.3447    8.4161 H   0  0  0  0  0  0  0  0  0  0  0  0
  -33.6916   18.0773    7.1603 H   0  0  0  0  0  0  0  0  0  0  0  0
  -32.3756   20.7505    7.1119 H   0  0  0  0  0  0  0  0  0  0  0  0
  -31.3283   19.3254    6.6863 H   0  0  0  0  0  0  0  0  0  0  0  0
  -32.3588   18.9795    4.7285 H   0  0  0  0  0  0  0  0  0  0  0  0
  -33.9979   19.3562    5.4352 H   0  0  0  0  0  0  0  0  0  0  0  0
  1  2  1  0
  2  3  1  0
  3  4  1  0
  4  5  1  0
  5  6  1  0
  6  7  2  0
  7  8  1  0
  8  9  1  0
  9 10  2  0
 10 11  1  0
 11 12  1  0
 12 13  1  0
 13 14  1  0
 14 15  1  0
 15 16  1  0
 16 17  1  0
 17 18  1  0
 18 19  2  0
 18 20  1  0
  1 21  1  0
  1 22  1  0
  1 23  1  0
  2 24  1  0
  2 25  1  0
  3 26  1  0
  3 27  1  0
  4 28  1  0
  4 29  1  0
  5 30  1  0
  5 31  1  0
  6 32  1  0
  7 33  1  0
  8 34  1  0
  8 35  1  0
  9 36  1  0
 10 37  1  0
 11 38  1  0
 11 39  1  0
 12 40  1  0
 12 41  1  0
 13 42  1  0
 13 43  1  0
 14 44  1  0
 14 45  1  0
 15 46  1  0
 15 47  1  0
 16 48  1  0
 16 49  1  0
 17 50  1  0
 17 51  1  0
M  CHG  1  20  -1
M  END
>  <meeko>  (3) 
{"is_sidechain": [false], "free_energy": -6.297, "intermolecular_energy": -11.943, "internal_energy": -2.441}

$$$$
linoleate_Nlobe_run01
     RDKit          3D

 51 50  0  0  0  0  0  0  0  0999 V2000
  -39.2870   21.9370    7.3000 C   0  0  0  0  0  0  0  0  0  0  0  0
  -38.4310   20.9080    6.5760 C   0  0  0  0  0  0  0  0  0  0  0  0
  -36.9980   20.8250    7.1050 C   0  0  0  0  0  0  0  0  0  0  0  0
  -35.9430   20.7950    5.9950 C   0  0  0  0  0  0  0  0  0  0  0  0
  -34.9290   21.9330    6.1650 C   0  0  0  0  0  0  0  0  0  0  0  0
  -35.4270   23.1920    6.8240 C   0  0  0  0  0  0  0  0  0  0  0  0
  -34.7320   24.3150    7.0640 C   0  0  0  0  0  0  0  0  0  0  0  0
  -33.2870   24.4920    6.6940 C   0  0  0  0  0  0  0  0  0  0  0  0
  -32.5070   25.1210    7.8100 C   0  0  0  0  0  0  0  0  0  0  0  0
  -32.1660   24.4780    8.9370 C   0  0  0  0  0  0  0  0  0  0  0  0
  -32.5240   23.0460    9.2200 C   0  0  0  0  0  0  0  0  0  0  0  0
  -33.6030   22.8970   10.2990 C   0  0  0  0  0  0  0  0  0  0  0  0
  -34.6760   21.8620    9.9440 C   0  0  0  0  0  0  0  0  0  0  0  0
  -34.3850   20.4690   10.5120 C   0  0  0  0  0  0  0  0  0  0  0  0
  -34.3820   19.3680    9.4480 C   0  0  0  0  0  0  0  0  0  0  0  0
  -33.2890   19.6140    8.4010 C   0  0  0  0  0  0  0  0  0  0  0  0
  -33.2270   18.5050    7.3520 C   0  0  0  0  0  0  0  0  0  0  0  0
  -31.8300   18.2480    6.8420 C   0  0  0  0  0  0  0  0  0  0  0  0
  -30.8220   18.1460    7.5240 O   0  0  0  0  0  0  0  0  0  0  0  0
  -31.8430   18.1120    5.4910 O   0  0  0  0  0  0  0  0  0  0  0  0
  -39.1777   21.8056    8.3866 H   0  0  0  0  0  0  0  0  0  0  0  0
  -38.9606   22.9490    7.0183 H   0  0  0  0  0  0  0  0  0  0  0  0
  -40.3415   21.8002    7.0183 H   0  0  0  0  0  0  0  0  0  0  0  0
  -38.9021   19.9206    6.6906 H   0  0  0  0  0  0  0  0  0  0  0  0
  -38.3695   21.2215    5.5234 H   0  0  0  0  0  0  0  0  0  0  0  0
  -36.8097   21.7018    7.7420 H   0  0  0  0  0  0  0  0  0  0  0  0
  -36.9109   19.8809    7.6628 H   0  0  0  0  0  0  0  0  0  0  0  0
  -35.4118   19.8324    6.0304 H   0  0  0  0  0  0  0  0  0  0  0  0
  -36.4507   20.9215    5.0274 H   0  0  0  0  0  0  0  0  0  0  0  0
  -34.0948   21.5481    6.7700 H   0  0  0  0  0  0  0  0  0  0  0  0
  -34.6565   22.2315    5.1419 H   0  0  0  0  0  0  0  0  0  0  0  0
  -36.4791   23.1914    7.1450 H   0  0  0  0  0  0  0  0  0  0  0  0
  -35.2486   25.1509    7.5584 H   0  0  0  0  0  0  0  0  0  0  0  0
  -32.8533   23.5073    6.4655 H   0  0  0  0  0  0  0  0  0  0  0  0
  -33.2337   25.1560    5.8186 H   0  0  0  0  0  0  0  0  0  0  0  0
  -32.1965   26.1703    7.6979 H   0  0  0  0  0  0  0  0  0  0  0  0
  -31.5924   25.0297    9.6963 H   0  0  0  0  0  0  0  0  0  0  0  0
  -32.8927   22.5872    8.2907 H   0  0  0  0  0  0  0  0  0  0  0  0
  -31.6165   22.5490    9.5933 H   0  0  0  0  0  0  0  0  0  0  0  0
  -33.1183   22.5897   11.2374 H   0  0  0  0  0  0  0  0  0  0  0  0
  -34.1071   23.8702   10.3924 H   0  0  0  0  0  0  0  0  0  0  0  0
  -35.6406   22.2077   10.3439 H   0  0  0  0  0  0  0  0  0  0  0  0
  -34.6909   21.7706    8.8479 H   0  0  0  0  0  0  0  0  0  0  0  0
  -33.3975   20.4890   10.9961 H   0  0  0  0  0  0  0  0  0  0  0  0
  -35.1910   20.2326   11.2223 H   0  0  0  0  0  0  0  0  0  0  0  0
  -34.2011   18.3984    9.9350 H   0  0  0  0  0  0  0  0  0  0  0  0
  -35.3581   19.3701    8.9408 H   0  0  0  0  0  0  0  0  0  0  0  0
  -33.4938   20.5686    7.8942 H   0  0  0  0  0  0  0  0  0  0  0  0
  -32.3218   19.6349    8.9245 H   0  0  0  0  0  0  0  0  0  0  0  0
  -33.6118   17.5773    7.8006 H   0  0  0  0  0  0  0  0  0  0  0  0
  -33.8337   18.8312    6.4944 H   0  0  0  0  0  0  0  0  0  0  0  0
  1  2  1  0
  2  3  1  0
  3  4  1  0
  4  5  1  0
  5  6  1  0
  6  7  2  0
  7  8  1  0
  8  9  1  0
  9 10  2  0
 10 11  1  0
 11 12  1  0
 12 13  1  0
 13 14  1  0
 14 15  1  0
 15 16  1  0
 16 17  1  0
 17 18  1  0
 18 19  2  0
 18 20  1  0
  1 21  1  0
  1 22  1  0
  1 23  1  0
  2 24  1  0
  2 25  1  0
  3 26  1  0
  3 27  1  0
  4 28  1  0
  4 29  1  0
  5 30  1  0
  5 31  1  0
  6 32  1  0
  7 33  1  0
  8 34  1  0
  8 35  1  0
  9 36  1  0
 10 37  1  0
 11 38  1  0
 11 39  1  0
 12 40  1  0
 12 41  1  0
 13 42  1  0
 13 43  1  0
 14 44  1  0
 14 45  1  0
 15 46  1  0
 15 47  1  0
 16 48  1  0
 16 49  1  0
 17 50  1  0
 17 51  1  0
M  CHG  1  20  -1
M  END
>  <meeko>  (4) 
{"is_sidechain": [false], "free_energy": -6.256, "intermolecular_energy": -11.994, "internal_energy": -2.316}

$$$$
linoleate_Nlobe_run01
     RDKit          3D

 51 50  0  0  0  0  0  0  0  0999 V2000
  -32.7860   25.0970    6.9410 C   0  0  0  0  0  0  0  0  0  0  0  0
  -32.0610   24.9170    8.2660 C   0  0  0  0  0  0  0  0  0  0  0  0
  -32.2440   23.5260    8.8780 C   0  0  0  0  0  0  0  0  0  0  0  0
  -33.7090   23.0910    8.9680 C   0  0  0  0  0  0  0  0  0  0  0  0
  -33.9810   22.3310   10.2720 C   0  0  0  0  0  0  0  0  0  0  0  0
  -34.9480   21.1800   10.1980 C   0  0  0  0  0  0  0  0  0  0  0  0
  -34.7290   19.9650    9.6720 C   0  0  0  0  0  0  0  0  0  0  0  0
  -33.4270   19.5540    9.0460 C   0  0  0  0  0  0  0  0  0  0  0  0
  -33.6440   18.7600    7.7920 C   0  0  0  0  0  0  0  0  0  0  0  0
  -33.2340   19.1570    6.5780 C   0  0  0  0  0  0  0  0  0  0  0  0
  -32.5030   20.4460    6.3250 C   0  0  0  0  0  0  0  0  0  0  0  0
  -33.3130   21.4420    5.4870 C   0  0  0  0  0  0  0  0  0  0  0  0
  -34.4670   20.7900    4.7180 C   0  0  0  0  0  0  0  0  0  0  0  0
  -35.8420   21.3530    5.0940 C   0  0  0  0  0  0  0  0  0  0  0  0
  -35.8610   22.0440    6.4600 C   0  0  0  0  0  0  0  0  0  0  0  0
  -37.1870   21.7930    7.1890 C   0  0  0  0  0  0  0  0  0  0  0  0
  -37.7410   20.3940    6.9240 C   0  0  0  0  0  0  0  0  0  0  0  0
  -39.2470   20.3270    7.0060 C   0  0  0  0  0  0  0  0  0  0  0  0
  -39.9200   20.4700    8.0160 O   0  0  0  0  0  0  0  0  0  0  0  0
  -39.7740   20.1110    5.7740 O   0  0  0  0  0  0  0  0  0  0  0  0
  -33.8376   25.3581    7.1309 H   0  0  0  0  0  0  0  0  0  0  0  0
  -32.3060   25.9032    6.3669 H   0  0  0  0  0  0  0  0  0  0  0  0
  -32.7388   24.1599    6.3669 H   0  0  0  0  0  0  0  0  0  0  0  0
  -30.9867   25.0862    8.1009 H   0  0  0  0  0  0  0  0  0  0  0  0
  -32.4935   25.6408    8.9724 H   0  0  0  0  0  0  0  0  0  0  0  0
  -31.7012   22.7976    8.2576 H   0  0  0  0  0  0  0  0  0  0  0  0
  -31.8535   23.5686    9.9055 H   0  0  0  0  0  0  0  0  0  0  0  0
  -34.3514   23.9832    8.9316 H   0  0  0  0  0  0  0  0  0  0  0  0
  -33.9271   22.4223    8.1223 H   0  0  0  0  0  0  0  0  0  0  0  0
  -33.0202   21.9356   10.6333 H   0  0  0  0  0  0  0  0  0  0  0  0
  -34.4577   23.0648   10.9386 H   0  0  0  0  0  0  0  0  0  0  0  0
  -35.9474   21.3545   10.6232 H   0  0  0  0  0  0  0  0  0  0  0  0
  -35.5472   19.2304    9.7009 H   0  0  0  0  0  0  0  0  0  0  0  0
  -32.8478   20.4566    8.8014 H   0  0  0  0  0  0  0  0  0  0  0  0
  -32.8842   18.9218    9.7641 H   0  0  0  0  0  0  0  0  0  0  0  0
  -34.1695   17.7970    7.8725 H   0  0  0  0  0  0  0  0  0  0  0  0
  -33.4445   18.5025    5.7193 H   0  0  0  0  0  0  0  0  0  0  0  0
  -32.2694   20.9120    7.2937 H   0  0  0  0  0  0  0  0  0  0  0  0
  -31.5940   20.2014    5.7559 H   0  0  0  0  0  0  0  0  0  0  0  0
  -33.7295   22.2064    6.1595 H   0  0  0  0  0  0  0  0  0  0  0  0
  -32.6281   21.8736    4.7422 H   0  0  0  0  0  0  0  0  0  0  0  0
  -34.3055   20.9529    3.6422 H   0  0  0  0  0  0  0  0  0  0  0  0
  -34.4701   19.7217    4.9801 H   0  0  0  0  0  0  0  0  0  0  0  0
  -36.1409   22.0844    4.3287 H   0  0  0  0  0  0  0  0  0  0  0  0
  -36.5379   20.5029    5.1494 H   0  0  0  0  0  0  0  0  0  0  0  0
  -35.0351   21.6523    7.0720 H   0  0  0  0  0  0  0  0  0  0  0  0
  -35.7480   23.1271    6.3046 H   0  0  0  0  0  0  0  0  0  0  0  0
  -37.0231   21.9092    8.2705 H   0  0  0  0  0  0  0  0  0  0  0  0
  -37.9202   22.5213    6.8122 H   0  0  0  0  0  0  0  0  0  0  0  0
  -37.4311   20.0800    5.9163 H   0  0  0  0  0  0  0  0  0  0  0  0
  -37.3406   19.7299    7.7042 H   0  0  0  0  0  0  0  0  0  0  0  0
  1  2  1  0
  2  3  1  0
  3  4  1  0
  4  5  1  0
  5  6  1  0
  6  7  2  0
  7  8  1  0
  8  9  1  0
  9 10  2  0
 10 11  1  0
 11 12  1  0
 12 13  1  0
 13 14  1  0
 14 15  1  0
 15 16  1  0
 16 17  1  0
 17 18  1  0
 18 19  2  0
 18 20  1  0
  1 21  1  0
  1 22  1  0
  1 23  1  0
  2 24  1  0
  2 25  1  0
  3 26  1  0
  3 27  1  0
  4 28  1  0
  4 29  1  0
  5 30  1  0
  5 31  1  0
  6 32  1  0
  7 33  1  0
  8 34  1  0
  8 35  1  0
  9 36  1  0
 10 37  1  0
 11 38  1  0
 11 39  1  0
 12 40  1  0
 12 41  1  0
 13 42  1  0
 13 43  1  0
 14 44  1  0
 14 45  1  0
 15 46  1  0
 15 47  1  0
 16 48  1  0
 16 49  1  0
 17 50  1  0
 17 51  1  0
M  CHG  1  20  -1
M  END
>  <meeko>  (5) 
{"is_sidechain": [false], "free_energy": -6.201, "intermolecular_energy": -11.526, "internal_energy": -2.683}

$$$$
linoleate_Nlobe_run01
     RDKit          3D

 51 50  0  0  0  0  0  0  0  0999 V2000
  -34.1870   19.2260   11.1250 C   0  0  0  0  0  0  0  0  0  0  0  0
  -34.7880   20.6160   11.2620 C   0  0  0  0  0  0  0  0  0  0  0  0
  -34.6280   21.4780   10.0080 C   0  0  0  0  0  0  0  0  0  0  0  0
  -35.0560   20.7630    8.7220 C   0  0  0  0  0  0  0  0  0  0  0  0
  -35.8850   21.6900    7.8250 C   0  0  0  0  0  0  0  0  0  0  0  0
  -36.0820   23.1020    8.3060 C   0  0  0  0  0  0  0  0  0  0  0  0
  -35.5380   24.2190    7.7970 C   0  0  0  0  0  0  0  0  0  0  0  0
  -34.6070   24.2260    6.6190 C   0  0  0  0  0  0  0  0  0  0  0  0
  -33.2590   24.7750    6.9840 C   0  0  0  0  0  0  0  0  0  0  0  0
  -32.1410   24.0350    7.0310 C   0  0  0  0  0  0  0  0  0  0  0  0
  -32.1000   22.5660    6.7210 C   0  0  0  0  0  0  0  0  0  0  0  0
  -31.6910   21.7080    7.9240 C   0  0  0  0  0  0  0  0  0  0  0  0
  -31.0380   20.3790    7.5280 C   0  0  0  0  0  0  0  0  0  0  0  0
  -31.8910   19.1560    7.8820 C   0  0  0  0  0  0  0  0  0  0  0  0
  -32.3090   18.3330    6.6610 C   0  0  0  0  0  0  0  0  0  0  0  0
  -32.5240   19.2320    5.4370 C   0  0  0  0  0  0  0  0  0  0  0  0
  -33.9560   19.7550    5.3410 C   0  0  0  0  0  0  0  0  0  0  0  0
  -34.1370   20.7980    4.2640 C   0  0  0  0  0  0  0  0  0  0  0  0
  -35.0460   21.6100    4.1940 O   0  0  0  0  0  0  0  0  0  0  0  0
  -33.1130   20.7330    3.3750 O   0  0  0  0  0  0  0  0  0  0  0  0
  -34.0050   18.8051   12.1248 H   0  0  0  0  0  0  0  0  0  0  0  0
  -34.8850   18.5773   10.5755 H   0  0  0  0  0  0  0  0  0  0  0  0
  -33.2362   19.2901   10.5755 H   0  0  0  0  0  0  0  0  0  0  0  0
  -35.8616   20.5112   11.4774 H   0  0  0  0  0  0  0  0  0  0  0  0
  -34.2464   21.1234   12.0739 H   0  0  0  0  0  0  0  0  0  0  0  0
  -35.2426   22.3827   10.1255 H   0  0  0  0  0  0  0  0  0  0  0  0
  -33.5581   21.7135    9.9090 H   0  0  0  0  0  0  0  0  0  0  0  0
  -34.1582   20.4413    8.1739 H   0  0  0  0  0  0  0  0  0  0  0  0
  -35.6745   19.8950    8.9940 H   0  0  0  0  0  0  0  0  0  0  0  0
  -35.3864   21.7386    6.8457 H   0  0  0  0  0  0  0  0  0  0  0  0
  -36.8924   21.2486    7.8082 H   0  0  0  0  0  0  0  0  0  0  0  0
  -36.7467   23.2340    9.1724 H   0  0  0  0  0  0  0  0  0  0  0  0
  -35.7879   25.1809    8.2684 H   0  0  0  0  0  0  0  0  0  0  0  0
  -34.4858   23.1956    6.2535 H   0  0  0  0  0  0  0  0  0  0  0  0
  -35.0417   24.8702    5.8405 H   0  0  0  0  0  0  0  0  0  0  0  0
  -33.1832   25.8452    7.2269 H   0  0  0  0  0  0  0  0  0  0  0  0
  -31.2011   24.5323    7.3125 H   0  0  0  0  0  0  0  0  0  0  0  0
  -33.1003   22.2502    6.3898 H   0  0  0  0  0  0  0  0  0  0  0  0
  -31.3408   22.4171    5.9390 H   0  0  0  0  0  0  0  0  0  0  0  0
  -30.9761   22.2800    8.5337 H   0  0  0  0  0  0  0  0  0  0  0  0
  -32.6096   21.4666    8.4789 H   0  0  0  0  0  0  0  0  0  0  0  0
  -30.8680   20.3835    6.4412 H   0  0  0  0  0  0  0  0  0  0  0  0
  -30.0983   20.2960    8.0938 H   0  0  0  0  0  0  0  0  0  0  0  0
  -31.3105   18.5093    8.5564 H   0  0  0  0  0  0  0  0  0  0  0  0
  -32.8123   19.5280    8.3540 H   0  0  0  0  0  0  0  0  0  0  0  0
  -31.5205   17.6002    6.4346 H   0  0  0  0  0  0  0  0  0  0  0  0
  -33.2561   17.8229    6.8908 H   0  0  0  0  0  0  0  0  0  0  0  0
  -31.8387   20.0898    5.5044 H   0  0  0  0  0  0  0  0  0  0  0  0
  -32.3275   18.6276    4.5392 H   0  0  0  0  0  0  0  0  0  0  0  0
  -34.6237   18.9083    5.1236 H   0  0  0  0  0  0  0  0  0  0  0  0
  -34.1948   20.2329    6.3026 H   0  0  0  0  0  0  0  0  0  0  0  0
  1  2  1  0
  2  3  1  0
  3  4  1  0
  4  5  1  0
  5  6  1  0
  6  7  2  0
  7  8  1  0
  8  9  1  0
  9 10  2  0
 10 11  1  0
 11 12  1  0
 12 13  1  0
 13 14  1  0
 14 15  1  0
 15 16  1  0
 16 17  1  0
 17 18  1  0
 18 19  2  0
 18 20  1  0
  1 21  1  0
  1 22  1  0
  1 23  1  0
  2 24  1  0
  2 25  1  0
  3 26  1  0
  3 27  1  0
  4 28  1  0
  4 29  1  0
  5 30  1  0
  5 31  1  0
  6 32  1  0
  7 33  1  0
  8 34  1  0
  8 35  1  0
  9 36  1  0
 10 37  1  0
 11 38  1  0
 11 39  1  0
 12 40  1  0
 12 41  1  0
 13 42  1  0
 13 43  1  0
 14 44  1  0
 14 45  1  0
 15 46  1  0
 15 47  1  0
 16 48  1  0
 16 49  1  0
 17 50  1  0
 17 51  1  0
M  CHG  1  20  -1
M  END
>  <meeko>  (6) 
{"is_sidechain": [false], "free_energy": -6.168, "intermolecular_energy": -11.59, "internal_energy": -2.559}

$$$$
linoleate_Nlobe_run01
     RDKit          3D

 51 50  0  0  0  0  0  0  0  0999 V2000
  -32.5940   19.5170    6.0570 C   0  0  0  0  0  0  0  0  0  0  0  0
  -32.7870   19.9930    7.4880 C   0  0  0  0  0  0  0  0  0  0  0  0
  -33.6430   19.0500    8.3370 C   0  0  0  0  0  0  0  0  0  0  0  0
  -34.0960   19.6700    9.6620 C   0  0  0  0  0  0  0  0  0  0  0  0
  -34.6790   21.0710    9.4460 C   0  0  0  0  0  0  0  0  0  0  0  0
  -34.2960   22.1270   10.4480 C   0  0  0  0  0  0  0  0  0  0  0  0
  -33.3060   23.0280   10.3440 C   0  0  0  0  0  0  0  0  0  0  0  0
  -32.3900   23.1200    9.1580 C   0  0  0  0  0  0  0  0  0  0  0  0
  -32.2600   24.5330    8.6700 C   0  0  0  0  0  0  0  0  0  0  0  0
  -32.9600   25.0330    7.6410 C   0  0  0  0  0  0  0  0  0  0  0  0
  -33.9610   24.2390    6.8500 C   0  0  0  0  0  0  0  0  0  0  0  0
  -35.3490   24.2030    7.5000 C   0  0  0  0  0  0  0  0  0  0  0  0
  -36.1580   22.9550    7.1310 C   0  0  0  0  0  0  0  0  0  0  0  0
  -35.5190   22.1260    6.0120 C   0  0  0  0  0  0  0  0  0  0  0  0
  -36.0810   20.7060    5.9120 C   0  0  0  0  0  0  0  0  0  0  0  0
  -37.6040   20.7250    5.7330 C   0  0  0  0  0  0  0  0  0  0  0  0
  -38.3350   20.0410    6.8870 C   0  0  0  0  0  0  0  0  0  0  0  0
  -39.7000   20.6280    7.1560 C   0  0  0  0  0  0  0  0  0  0  0  0
  -40.6710   20.0250    7.5880 O   0  0  0  0  0  0  0  0  0  0  0  0
  -39.7000   21.9560    6.8770 O   0  0  0  0  0  0  0  0  0  0  0  0
  -32.1807   18.4976    6.0623 H   0  0  0  0  0  0  0  0  0  0  0  0
  -33.5632   19.5170    5.5367 H   0  0  0  0  0  0  0  0  0  0  0  0
  -31.8985   20.1920    5.5367 H   0  0  0  0  0  0  0  0  0  0  0  0
  -31.7978   20.0849    7.9604 H   0  0  0  0  0  0  0  0  0  0  0  0
  -33.3182   20.9550    7.4392 H   0  0  0  0  0  0  0  0  0  0  0  0
  -34.5362   18.7729    7.7579 H   0  0  0  0  0  0  0  0  0  0  0  0
  -33.0203   18.1770    8.5821 H   0  0  0  0  0  0  0  0  0  0  0  0
  -34.8650   19.0270   10.1150 H   0  0  0  0  0  0  0  0  0  0  0  0
  -33.2221   19.7540   10.3248 H   0  0  0  0  0  0  0  0  0  0  0  0
  -34.3520   21.4184    8.4549 H   0  0  0  0  0  0  0  0  0  0  0  0
  -35.7668   20.9504    9.5562 H   0  0  0  0  0  0  0  0  0  0  0  0
  -34.8950   22.1648   11.3698 H   0  0  0  0  0  0  0  0  0  0  0  0
  -33.1581   23.7368   11.1721 H   0  0  0  0  0  0  0  0  0  0  0  0
  -31.3953   22.7484    9.4453 H   0  0  0  0  0  0  0  0  0  0  0  0
  -32.8161   22.5128    8.3457 H   0  0  0  0  0  0  0  0  0  0  0  0
  -31.5502   25.1966    9.1856 H   0  0  0  0  0  0  0  0  0  0  0  0
  -32.7919   26.0832    7.3603 H   0  0  0  0  0  0  0  0  0  0  0  0
  -34.0540   24.6892    5.8507 H   0  0  0  0  0  0  0  0  0  0  0  0
  -33.5941   23.2031    6.8025 H   0  0  0  0  0  0  0  0  0  0  0  0
  -35.2238   24.2277    8.5926 H   0  0  0  0  0  0  0  0  0  0  0  0
  -35.9064   25.0750    7.1273 H   0  0  0  0  0  0  0  0  0  0  0  0
  -36.2498   22.3216    8.0256 H   0  0  0  0  0  0  0  0  0  0  0  0
  -37.1362   23.2984    6.7634 H   0  0  0  0  0  0  0  0  0  0  0  0
  -35.6940   22.6386    5.0546 H   0  0  0  0  0  0  0  0  0  0  0  0
  -34.4478   22.0360    6.2452 H   0  0  0  0  0  0  0  0  0  0  0  0
  -35.6244   20.1991    5.0491 H   0  0  0  0  0  0  0  0  0  0  0  0
  -35.8459   20.1713    6.8441 H   0  0  0  0  0  0  0  0  0  0  0  0
  -37.9395   21.7709    5.6728 H   0  0  0  0  0  0  0  0  0  0  0  0
  -37.8402   20.1721    4.8119 H   0  0  0  0  0  0  0  0  0  0  0  0
  -38.4545   18.9751    6.6427 H   0  0  0  0  0  0  0  0  0  0  0  0
  -37.7296   20.1912    7.7930 H   0  0  0  0  0  0  0  0  0  0  0  0
  1  2  1  0
  2  3  1  0
  3  4  1  0
  4  5  1  0
  5  6  1  0
  6  7  2  0
  7  8  1  0
  8  9  1  0
  9 10  2  0
 10 11  1  0
 11 12  1  0
 12 13  1  0
 13 14  1  0
 14 15  1  0
 15 16  1  0
 16 17  1  0
 17 18  1  0
 18 19  2  0
 18 20  1  0
  1 21  1  0
  1 22  1  0
  1 23  1  0
  2 24  1  0
  2 25  1  0
  3 26  1  0
  3 27  1  0
  4 28  1  0
  4 29  1  0
  5 30  1  0
  5 31  1  0
  6 32  1  0
  7 33  1  0
  8 34  1  0
  8 35  1  0
  9 36  1  0
 10 37  1  0
 11 38  1  0
 11 39  1  0
 12 40  1  0
 12 41  1  0
 13 42  1  0
 13 43  1  0
 14 44  1  0
 14 45  1  0
 15 46  1  0
 15 47  1  0
 16 48  1  0
 16 49  1  0
 17 50  1  0
 17 51  1  0
M  CHG  1  20  -1
M  END
>  <meeko>  (7) 
{"is_sidechain": [false], "free_energy": -6.128, "intermolecular_energy": -11.579, "internal_energy": -2.499}

$$$$
linoleate_Nlobe_run01
     RDKit          3D

 51 50  0  0  0  0  0  0  0  0999 V2000
  -33.2630   24.7620    6.7130 C   0  0  0  0  0  0  0  0  0  0  0  0
  -32.4590   25.5490    7.7360 C   0  0  0  0  0  0  0  0  0  0  0  0
  -31.9330   24.6940    8.8910 C   0  0  0  0  0  0  0  0  0  0  0  0
  -32.4700   23.2600    8.8760 C   0  0  0  0  0  0  0  0  0  0  0  0
  -33.5650   23.0690    9.9330 C   0  0  0  0  0  0  0  0  0  0  0  0
  -34.4220   21.8380    9.8080 C   0  0  0  0  0  0  0  0  0  0  0  0
  -35.3990   21.6130    8.9140 C   0  0  0  0  0  0  0  0  0  0  0  0
  -35.8010   22.6030    7.8590 C   0  0  0  0  0  0  0  0  0  0  0  0
  -37.2900   22.6390    7.6780 C   0  0  0  0  0  0  0  0  0  0  0  0
  -37.9870   21.6840    7.0430 C   0  0  0  0  0  0  0  0  0  0  0  0
  -37.3630   20.4590    6.4370 C   0  0  0  0  0  0  0  0  0  0  0  0
  -37.3000   20.5110    4.9060 C   0  0  0  0  0  0  0  0  0  0  0  0
  -35.9150   20.8830    4.3680 C   0  0  0  0  0  0  0  0  0  0  0  0
  -34.7680   20.4120    5.2690 C   0  0  0  0  0  0  0  0  0  0  0  0
  -33.5690   21.3640    5.2730 C   0  0  0  0  0  0  0  0  0  0  0  0
  -32.4480   20.8380    6.1770 C   0  0  0  0  0  0  0  0  0  0  0  0
  -32.9100   19.6860    7.0680 C   0  0  0  0  0  0  0  0  0  0  0  0
  -32.0030   18.4810    6.9980 C   0  0  0  0  0  0  0  0  0  0  0  0
  -31.3310   18.0320    7.9140 O   0  0  0  0  0  0  0  0  0  0  0  0
  -32.0550   17.9290    5.7590 O   0  0  0  0  0  0  0  0  0  0  0  0
  -33.9555   24.0842    7.2336 H   0  0  0  0  0  0  0  0  0  0  0  0
  -33.8358   25.4581    6.0827 H   0  0  0  0  0  0  0  0  0  0  0  0
  -32.5793   24.1744    6.0827 H   0  0  0  0  0  0  0  0  0  0  0  0
  -31.6004   26.0087    7.2245 H   0  0  0  0  0  0  0  0  0  0  0  0
  -33.1365   26.2981    8.1717 H   0  0  0  0  0  0  0  0  0  0  0  0
  -30.8355   24.6566    8.8262 H   0  0  0  0  0  0  0  0  0  0  0  0
  -32.2772   25.1612    9.8255 H   0  0  0  0  0  0  0  0  0  0  0  0
  -32.8885   23.0436    7.8820 H   0  0  0  0  0  0  0  0  0  0  0  0
  -31.6408   22.5742    9.1042 H   0  0  0  0  0  0  0  0  0  0  0  0
  -33.0750   23.0347   10.9172 H   0  0  0  0  0  0  0  0  0  0  0  0
  -34.2537   23.9147    9.7899 H   0  0  0  0  0  0  0  0  0  0  0  0
  -34.2262   21.0317   10.5302 H   0  0  0  0  0  0  0  0  0  0  0  0
  -35.9330   20.6523    8.9571 H   0  0  0  0  0  0  0  0  0  0  0  0
  -35.4527   23.6032    8.1561 H   0  0  0  0  0  0  0  0  0  0  0  0
  -35.3447   22.2966    6.9062 H   0  0  0  0  0  0  0  0  0  0  0  0
  -37.8418   23.4971    8.0892 H   0  0  0  0  0  0  0  0  0  0  0  0
  -39.0773   21.8050    6.9616 H   0  0  0  0  0  0  0  0  0  0  0  0
  -36.3391   20.3586    6.8263 H   0  0  0  0  0  0  0  0  0  0  0  0
  -37.9936   19.6002    6.7104 H   0  0  0  0  0  0  0  0  0  0  0  0
  -37.5732   19.5211    4.5117 H   0  0  0  0  0  0  0  0  0  0  0  0
  -37.9979   21.2954    4.5781 H   0  0  0  0  0  0  0  0  0  0  0  0
  -35.7909   20.4239    3.3761 H   0  0  0  0  0  0  0  0  0  0  0  0
  -35.8661   21.9811    4.3256 H   0  0  0  0  0  0  0  0  0  0  0  0
  -35.1465   20.3234    6.2980 H   0  0  0  0  0  0  0  0  0  0  0  0
  -34.4168   19.4484    4.8713 H   0  0  0  0  0  0  0  0  0  0  0  0
  -33.1858   21.4631    4.2467 H   0  0  0  0  0  0  0  0  0  0  0  0
  -33.8995   22.3396    5.6589 H   0  0  0  0  0  0  0  0  0  0  0  0
  -31.6203   20.4851    5.5443 H   0  0  0  0  0  0  0  0  0  0  0  0
  -32.1312   21.6626    6.8325 H   0  0  0  0  0  0  0  0  0  0  0  0
  -32.9418   20.0399    8.1090 H   0  0  0  0  0  0  0  0  0  0  0  0
  -33.9009   19.3713    6.7088 H   0  0  0  0  0  0  0  0  0  0  0  0
  1  2  1  0
  2  3  1  0
  3  4  1  0
  4  5  1  0
  5  6  1  0
  6  7  2  0
  7  8  1  0
  8  9  1  0
  9 10  2  0
 10 11  1  0
 11 12  1  0
 12 13  1  0
 13 14  1  0
 14 15  1  0
 15 16  1  0
 16 17  1  0
 17 18  1  0
 18 19  2  0
 18 20  1  0
  1 21  1  0
  1 22  1  0
  1 23  1  0
  2 24  1  0
  2 25  1  0
  3 26  1  0
  3 27  1  0
  4 28  1  0
  4 29  1  0
  5 30  1  0
  5 31  1  0
  6 32  1  0
  7 33  1  0
  8 34  1  0
  8 35  1  0
  9 36  1  0
 10 37  1  0
 11 38  1  0
 11 39  1  0
 12 40  1  0
 12 41  1  0
 13 42  1  0
 13 43  1  0
 14 44  1  0
 14 45  1  0
 15 46  1  0
 15 47  1  0
 16 48  1  0
 16 49  1  0
 17 50  1  0
 17 51  1  0
M  CHG  1  20  -1
M  END
>  <meeko>  (8) 
{"is_sidechain": [false], "free_energy": -6.115, "intermolecular_energy": -11.657, "internal_energy": -2.395}

$$$$
linoleate_Nlobe_run01
     RDKit          3D

 51 50  0  0  0  0  0  0  0  0999 V2000
  -34.0850   19.2390   10.1420 C   0  0  0  0  0  0  0  0  0  0  0  0
  -34.4480   20.6550    9.7220 C   0  0  0  0  0  0  0  0  0  0  0  0
  -34.4900   21.6460   10.8870 C   0  0  0  0  0  0  0  0  0  0  0  0
  -33.7750   22.9670   10.5860 C   0  0  0  0  0  0  0  0  0  0  0  0
  -32.7920   22.8090    9.4190 C   0  0  0  0  0  0  0  0  0  0  0  0
  -32.4860   24.0460    8.6180 C   0  0  0  0  0  0  0  0  0  0  0  0
  -33.1300   24.4920    7.5280 C   0  0  0  0  0  0  0  0  0  0  0  0
  -34.3070   23.7870    6.9150 C   0  0  0  0  0  0  0  0  0  0  0  0
  -35.5930   24.1870    7.5750 C   0  0  0  0  0  0  0  0  0  0  0  0
  -36.5780   23.3250    7.8700 C   0  0  0  0  0  0  0  0  0  0  0  0
  -36.5150   21.8530    7.5760 C   0  0  0  0  0  0  0  0  0  0  0  0
  -37.3240   21.4510    6.3380 C   0  0  0  0  0  0  0  0  0  0  0  0
  -36.4550   20.9360    5.1860 C   0  0  0  0  0  0  0  0  0  0  0  0
  -35.0840   20.4240    5.6430 C   0  0  0  0  0  0  0  0  0  0  0  0
  -33.9720   20.6760    4.6230 C   0  0  0  0  0  0  0  0  0  0  0  0
  -32.6020   20.2860    5.1900 C   0  0  0  0  0  0  0  0  0  0  0  0
  -32.6860   19.8030    6.6380 C   0  0  0  0  0  0  0  0  0  0  0  0
  -31.8220   18.5960    6.9120 C   0  0  0  0  0  0  0  0  0  0  0  0
  -31.4580   18.2050    8.0110 O   0  0  0  0  0  0  0  0  0  0  0  0
  -31.5170   17.9650    5.7490 O   0  0  0  0  0  0  0  0  0  0  0  0
  -34.0686   19.1751   11.2400 H   0  0  0  0  0  0  0  0  0  0  0  0
  -34.8319   18.5359    9.7449 H   0  0  0  0  0  0  0  0  0  0  0  0
  -33.0919   18.9820    9.7449 H   0  0  0  0  0  0  0  0  0  0  0  0
  -33.7007   21.0046    8.9944 H   0  0  0  0  0  0  0  0  0  0  0  0
  -35.4607   20.6158    9.2943 H   0  0  0  0  0  0  0  0  0  0  0  0
  -35.5423   21.8643   11.1217 H   0  0  0  0  0  0  0  0  0  0  0  0
  -33.9650   21.1770   11.7323 H   0  0  0  0  0  0  0  0  0  0  0  0
  -34.5236   23.7293   10.3245 H   0  0  0  0  0  0  0  0  0  0  0  0
  -33.2104   23.2705   11.4800 H   0  0  0  0  0  0  0  0  0  0  0  0
  -31.8428   22.4362    9.8314 H   0  0  0  0  0  0  0  0  0  0  0  0
  -33.2884   22.1252    8.7147 H   0  0  0  0  0  0  0  0  0  0  0  0
  -31.6377   24.6540    8.9655 H   0  0  0  0  0  0  0  0  0  0  0  0
  -32.7777   25.4225    7.0588 H   0  0  0  0  0  0  0  0  0  0  0  0
  -34.3594   24.0422    5.8463 H   0  0  0  0  0  0  0  0  0  0  0  0
  -34.1707   22.7043    7.0532 H   0  0  0  0  0  0  0  0  0  0  0  0
  -35.7368   25.2469    7.8317 H   0  0  0  0  0  0  0  0  0  0  0  0
  -37.4835   23.7186    8.3549 H   0  0  0  0  0  0  0  0  0  0  0  0
  -35.4637   21.5735    7.4129 H   0  0  0  0  0  0  0  0  0  0  0  0
  -36.9524   21.3278    8.4379 H   0  0  0  0  0  0  0  0  0  0  0  0
  -38.0295   20.6573    6.6248 H   0  0  0  0  0  0  0  0  0  0  0  0
  -37.8391   22.3540    5.9785 H   0  0  0  0  0  0  0  0  0  0  0  0
  -36.9873   20.1120    4.6883 H   0  0  0  0  0  0  0  0  0  0  0  0
  -36.2769   21.7836    4.5079 H   0  0  0  0  0  0  0  0  0  0  0  0
  -34.8175   20.9310    6.5821 H   0  0  0  0  0  0  0  0  0  0  0  0
  -35.1691   19.3346    5.7691 H   0  0  0  0  0  0  0  0  0  0  0  0
  -34.1703   20.0787    3.7208 H   0  0  0  0  0  0  0  0  0  0  0  0
  -33.9568   21.7491    4.3816 H   0  0  0  0  0  0  0  0  0  0  0  0
  -32.1809   19.4790    4.5724 H   0  0  0  0  0  0  0  0  0  0  0  0
  -31.9644   21.1822    5.1721 H   0  0  0  0  0  0  0  0  0  0  0  0
  -32.3638   20.6212    7.2989 H   0  0  0  0  0  0  0  0  0  0  0  0
  -33.7292   19.5082    6.8248 H   0  0  0  0  0  0  0  0  0  0  0  0
  1  2  1  0
  2  3  1  0
  3  4  1  0
  4  5  1  0
  5  6  1  0
  6  7  2  0
  7  8  1  0
  8  9  1  0
  9 10  2  0
 10 11  1  0
 11 12  1  0
 12 13  1  0
 13 14  1  0
 14 15  1  0
 15 16  1  0
 16 17  1  0
 17 18  1  0
 18 19  2  0
 18 20  1  0
  1 21  1  0
  1 22  1  0
  1 23  1  0
  2 24  1  0
  2 25  1  0
  3 26  1  0
  3 27  1  0
  4 28  1  0
  4 29  1  0
  5 30  1  0
  5 31  1  0
  6 32  1  0
  7 33  1  0
  8 34  1  0
  8 35  1  0
  9 36  1  0
 10 37  1  0
 11 38  1  0
 11 39  1  0
 12 40  1  0
 12 41  1  0
 13 42  1  0
 13 43  1  0
 14 44  1  0
 14 45  1  0
 15 46  1  0
 15 47  1  0
 16 48  1  0
 16 49  1  0
 17 50  1  0
 17 51  1  0
M  CHG  1  20  -1
M  END
>  <meeko>  (9) 
{"is_sidechain": [false], "free_energy": -6.08, "intermolecular_energy": -11.375, "internal_energy": -2.614}

$$$$
linoleate_Nlobe_run01
     RDKit          3D

 51 50  0  0  0  0  0  0  0  0999 V2000
  -37.2660   20.8570    6.9830 C   0  0  0  0  0  0  0  0  0  0  0  0
  -36.8830   22.2600    7.4290 C   0  0  0  0  0  0  0  0  0  0  0  0
  -35.6350   22.8040    6.7300 C   0  0  0  0  0  0  0  0  0  0  0  0
  -35.1260   24.1170    7.3320 C   0  0  0  0  0  0  0  0  0  0  0  0
  -33.7510   24.4890    6.7650 C   0  0  0  0  0  0  0  0  0  0  0  0
  -32.7670   25.1070    7.7210 C   0  0  0  0  0  0  0  0  0  0  0  0
  -32.2100   24.5350    8.8000 C   0  0  0  0  0  0  0  0  0  0  0  0
  -32.5010   23.1270    9.2350 C   0  0  0  0  0  0  0  0  0  0  0  0
  -33.0610   23.0850   10.6260 C   0  0  0  0  0  0  0  0  0  0  0  0
  -34.1210   22.3430   10.9810 C   0  0  0  0  0  0  0  0  0  0  0  0
  -34.8770   21.4600   10.0300 C   0  0  0  0  0  0  0  0  0  0  0  0
  -34.4010   20.0030   10.0540 C   0  0  0  0  0  0  0  0  0  0  0  0
  -34.0910   19.4430    8.6620 C   0  0  0  0  0  0  0  0  0  0  0  0
  -32.6330   19.0000    8.4970 C   0  0  0  0  0  0  0  0  0  0  0  0
  -31.8840   19.7710    7.4080 C   0  0  0  0  0  0  0  0  0  0  0  0
  -32.8520   20.5930    6.5470 C   0  0  0  0  0  0  0  0  0  0  0  0
  -33.3900   19.8000    5.3560 C   0  0  0  0  0  0  0  0  0  0  0  0
  -33.4460   20.6080    4.0820 C   0  0  0  0  0  0  0  0  0  0  0  0
  -32.6480   20.5540    3.1600 O   0  0  0  0  0  0  0  0  0  0  0  0
  -34.5450   21.4040    4.0820 O   0  0  0  0  0  0  0  0  0  0  0  0
  -37.4384   20.2255    7.8670 H   0  0  0  0  0  0  0  0  0  0  0  0
  -38.1847   20.9020    6.3797 H   0  0  0  0  0  0  0  0  0  0  0  0
  -36.4518   20.4290    6.3797 H   0  0  0  0  0  0  0  0  0  0  0  0
  -37.7244   22.9353    7.2144 H   0  0  0  0  0  0  0  0  0  0  0  0
  -36.6542   22.2065    8.5036 H   0  0  0  0  0  0  0  0  0  0  0  0
  -34.8360   22.0519    6.8072 H   0  0  0  0  0  0  0  0  0  0  0  0
  -35.9111   23.0105    5.6854 H   0  0  0  0  0  0  0  0  0  0  0  0
  -35.8402   24.9201    7.0977 H   0  0  0  0  0  0  0  0  0  0  0  0
  -35.0314   23.9883    8.4203 H   0  0  0  0  0  0  0  0  0  0  0  0
  -33.2957   23.5703    6.3667 H   0  0  0  0  0  0  0  0  0  0  0  0
  -33.9506   25.2678    6.0143 H   0  0  0  0  0  0  0  0  0  0  0  0
  -32.4705   26.1454    7.5119 H   0  0  0  0  0  0  0  0  0  0  0  0
  -31.5028   25.1289    9.3975 H   0  0  0  0  0  0  0  0  0  0  0  0
  -33.2310   22.6828    8.5424 H   0  0  0  0  0  0  0  0  0  0  0  0
  -31.5576   22.5615    9.2260 H   0  0  0  0  0  0  0  0  0  0  0  0
  -32.5747   23.6977   11.3994 H   0  0  0  0  0  0  0  0  0  0  0  0
  -34.4554   22.3837   12.0282 H   0  0  0  0  0  0  0  0  0  0  0  0
  -35.9427   21.4846   10.3016 H   0  0  0  0  0  0  0  0  0  0  0  0
  -34.7015   21.8455    9.0148 H   0  0  0  0  0  0  0  0  0  0  0  0
  -33.4883   19.9440   10.6651 H   0  0  0  0  0  0  0  0  0  0  0  0
  -35.2202   19.3998   10.4725 H   0  0  0  0  0  0  0  0  0  0  0  0
  -34.7421   18.5748    8.4821 H   0  0  0  0  0  0  0  0  0  0  0  0
  -34.2693   20.2521    7.9385 H   0  0  0  0  0  0  0  0  0  0  0  0
  -32.1117   19.1524    9.4536 H   0  0  0  0  0  0  0  0  0  0  0  0
  -32.6468   17.9422    8.1954 H   0  0  0  0  0  0  0  0  0  0  0  0
  -31.1599   20.4499    7.8821 H   0  0  0  0  0  0  0  0  0  0  0  0
  -31.3686   19.0472    6.7596 H   0  0  0  0  0  0  0  0  0  0  0  0
  -33.6997   20.9094    7.1726 H   0  0  0  0  0  0  0  0  0  0  0  0
  -32.2980   21.4572    6.1517 H   0  0  0  0  0  0  0  0  0  0  0  0
  -32.7366   18.9307    5.1906 H   0  0  0  0  0  0  0  0  0  0  0  0
  -34.4201   19.5011    5.5999 H   0  0  0  0  0  0  0  0  0  0  0  0
  1  2  1  0
  2  3  1  0
  3  4  1  0
  4  5  1  0
  5  6  1  0
  6  7  2  0
  7  8  1  0
  8  9  1  0
  9 10  2  0
 10 11  1  0
 11 12  1  0
 12 13  1  0
 13 14  1  0
 14 15  1  0
 15 16  1  0
 16 17  1  0
 17 18  1  0
 18 19  2  0
 18 20  1  0
  1 21  1  0
  1 22  1  0
  1 23  1  0
  2 24  1  0
  2 25  1  0
  3 26  1  0
  3 27  1  0
  4 28  1  0
  4 29  1  0
  5 30  1  0
  5 31  1  0
  6 32  1  0
  7 33  1  0
  8 34  1  0
  8 35  1  0
  9 36  1  0
 10 37  1  0
 11 38  1  0
 11 39  1  0
 12 40  1  0
 12 41  1  0
 13 42  1  0
 13 43  1  0
 14 44  1  0
 14 45  1  0
 15 46  1  0
 15 47  1  0
 16 48  1  0
 16 49  1  0
 17 50  1  0
 17 51  1  0
M  CHG  1  20  -1
M  END
>  <meeko>  (10) 
{"is_sidechain": [false], "free_energy": -6.079, "intermolecular_energy": -11.725, "internal_energy": -2.263}

$$$$
linoleate_Nlobe_run01
     RDKit          3D

 51 50  0  0  0  0  0  0  0  0999 V2000
  -32.2530   23.6940    6.3890 C   0  0  0  0  0  0  0  0  0  0  0  0
  -33.1790   24.1360    7.5120 C   0  0  0  0  0  0  0  0  0  0  0  0
  -34.6570   24.1510    7.1160 C   0  0  0  0  0  0  0  0  0  0  0  0
  -35.5700   23.4920    8.1540 C   0  0  0  0  0  0  0  0  0  0  0  0
  -34.7510   22.7570    9.2220 C   0  0  0  0  0  0  0  0  0  0  0  0
  -35.1410   21.3330    9.5140 C   0  0  0  0  0  0  0  0  0  0  0  0
  -34.5220   20.2170    9.0990 C   0  0  0  0  0  0  0  0  0  0  0  0
  -33.2900   20.2230    8.2380 C   0  0  0  0  0  0  0  0  0  0  0  0
  -33.2000   18.9850    7.3970 C   0  0  0  0  0  0  0  0  0  0  0  0
  -32.9060   18.9930    6.0880 C   0  0  0  0  0  0  0  0  0  0  0  0
  -32.6280   20.2440    5.3040 C   0  0  0  0  0  0  0  0  0  0  0  0
  -33.7230   20.5680    4.2800 C   0  0  0  0  0  0  0  0  0  0  0  0
  -35.0390   21.0180    4.9230 C   0  0  0  0  0  0  0  0  0  0  0  0
  -36.2800   20.5550    4.1510 C   0  0  0  0  0  0  0  0  0  0  0  0
  -37.5610   20.5870    4.9880 C   0  0  0  0  0  0  0  0  0  0  0  0
  -37.2820   21.0930    6.4090 C   0  0  0  0  0  0  0  0  0  0  0  0
  -38.2510   20.5110    7.4370 C   0  0  0  0  0  0  0  0  0  0  0  0
  -39.6480   21.0720    7.3190 C   0  0  0  0  0  0  0  0  0  0  0  0
  -39.9400   22.2170    7.0080 O   0  0  0  0  0  0  0  0  0  0  0  0
  -40.5640   20.1050    7.5810 O   0  0  0  0  0  0  0  0  0  0  0  0
  -31.3388   23.2577    6.8179 H   0  0  0  0  0  0  0  0  0  0  0  0
  -32.7622   22.9418    5.7685 H   0  0  0  0  0  0  0  0  0  0  0  0
  -31.9884   24.5629    5.7685 H   0  0  0  0  0  0  0  0  0  0  0  0
  -33.0528   23.4457    8.3591 H   0  0  0  0  0  0  0  0  0  0  0  0
  -32.9033   25.1691    7.7702 H   0  0  0  0  0  0  0  0  0  0  0  0
  -34.9731   25.1967    6.9870 H   0  0  0  0  0  0  0  0  0  0  0  0
  -34.7505   23.5714    6.1858 H   0  0  0  0  0  0  0  0  0  0  0  0
  -36.1802   24.2677    8.6398 H   0  0  0  0  0  0  0  0  0  0  0  0
  -36.2116   22.7605    7.6409 H   0  0  0  0  0  0  0  0  0  0  0  0
  -33.7013   22.7540    8.8931 H   0  0  0  0  0  0  0  0  0  0  0  0
  -34.9389   23.3049   10.1571 H   0  0  0  0  0  0  0  0  0  0  0  0
  -36.0352   21.1908   10.1387 H   0  0  0  0  0  0  0  0  0  0  0  0
  -34.9384   19.2460    9.4053 H   0  0  0  0  0  0  0  0  0  0  0  0
  -33.3200   21.1021    7.5775 H   0  0  0  0  0  0  0  0  0  0  0  0
  -32.4095   20.2571    8.8965 H   0  0  0  0  0  0  0  0  0  0  0  0
  -33.3856   18.0147    7.8809 H   0  0  0  0  0  0  0  0  0  0  0  0
  -32.8663   18.0293    5.5590 H   0  0  0  0  0  0  0  0  0  0  0  0
  -32.5453   21.0864    6.0066 H   0  0  0  0  0  0  0  0  0  0  0  0
  -31.6946   20.0805    4.7455 H   0  0  0  0  0  0  0  0  0  0  0  0
  -33.3610   21.3739    3.6246 H   0  0  0  0  0  0  0  0  0  0  0  0
  -33.9320   19.6432    3.7223 H   0  0  0  0  0  0  0  0  0  0  0  0
  -35.0882   20.6070    5.9421 H   0  0  0  0  0  0  0  0  0  0  0  0
  -35.0443   22.1180    4.9193 H   0  0  0  0  0  0  0  0  0  0  0  0
  -36.4153   21.2136    3.2804 H   0  0  0  0  0  0  0  0  0  0  0  0
  -36.1091   19.5089    3.8571 H   0  0  0  0  0  0  0  0  0  0  0  0
  -38.2886   21.2560    4.5052 H   0  0  0  0  0  0  0  0  0  0  0  0
  -37.9597   19.5639    5.0543 H   0  0  0  0  0  0  0  0  0  0  0  0
  -36.2570   20.8092    6.6899 H   0  0  0  0  0  0  0  0  0  0  0  0
  -37.4124   22.1852    6.4070 H   0  0  0  0  0  0  0  0  0  0  0  0
  -38.2984   19.4212    7.2955 H   0  0  0  0  0  0  0  0  0  0  0  0
  -37.8725   20.7811    8.4339 H   0  0  0  0  0  0  0  0  0  0  0  0
  1  2  1  0
  2  3  1  0
  3  4  1  0
  4  5  1  0
  5  6  1  0
  6  7  2  0
  7  8  1  0
  8  9  1  0
  9 10  2  0
 10 11  1  0
 11 12  1  0
 12 13  1  0
 13 14  1  0
 14 15  1  0
 15 16  1  0
 16 17  1  0
 17 18  1  0
 18 19  2  0
 18 20  1  0
  1 21  1  0
  1 22  1  0
  1 23  1  0
  2 24  1  0
  2 25  1  0
  3 26  1  0
  3 27  1  0
  4 28  1  0
  4 29  1  0
  5 30  1  0
  5 31  1  0
  6 32  1  0
  7 33  1  0
  8 34  1  0
  8 35  1  0
  9 36  1  0
 10 37  1  0
 11 38  1  0
 11 39  1  0
 12 40  1  0
 12 41  1  0
 13 42  1  0
 13 43  1  0
 14 44  1  0
 14 45  1  0
 15 46  1  0
 15 47  1  0
 16 48  1  0
 16 49  1  0
 17 50  1  0
 17 51  1  0
M  CHG  1  20  -1
M  END
>  <meeko>  (11) 
{"is_sidechain": [false], "free_energy": -6.076, "intermolecular_energy": -11.377, "internal_energy": -2.606}

$$$$
linoleate_Nlobe_run01
     RDKit          3D

 51 50  0  0  0  0  0  0  0  0999 V2000
  -31.3940   18.2350    7.0210 C   0  0  0  0  0  0  0  0  0  0  0  0
  -32.2490   18.9150    8.0800 C   0  0  0  0  0  0  0  0  0  0  0  0
  -33.6370   19.3170    7.5800 C   0  0  0  0  0  0  0  0  0  0  0  0
  -33.6500   19.7550    6.1120 C   0  0  0  0  0  0  0  0  0  0  0  0
  -33.5900   21.2830    5.9910 C   0  0  0  0  0  0  0  0  0  0  0  0
  -32.2290   21.8950    5.7920 C   0  0  0  0  0  0  0  0  0  0  0  0
  -31.8640   23.1650    6.0280 C   0  0  0  0  0  0  0  0  0  0  0  0
  -32.8040   24.2150    6.5470 C   0  0  0  0  0  0  0  0  0  0  0  0
  -32.2150   24.9530    7.7130 C   0  0  0  0  0  0  0  0  0  0  0  0
  -32.0920   24.4290    8.9410 C   0  0  0  0  0  0  0  0  0  0  0  0
  -32.5260   23.0370    9.3010 C   0  0  0  0  0  0  0  0  0  0  0  0
  -33.8760   22.9970   10.0270 C   0  0  0  0  0  0  0  0  0  0  0  0
  -34.9860   22.3330    9.2050 C   0  0  0  0  0  0  0  0  0  0  0  0
  -35.8370   23.3340    8.4150 C   0  0  0  0  0  0  0  0  0  0  0  0
  -36.6970   22.6780    7.3330 C   0  0  0  0  0  0  0  0  0  0  0  0
  -36.9010   21.1850    7.6180 C   0  0  0  0  0  0  0  0  0  0  0  0
  -37.4850   20.4370    6.4200 C   0  0  0  0  0  0  0  0  0  0  0  0
  -38.9790   20.6060    6.2850 C   0  0  0  0  0  0  0  0  0  0  0  0
  -39.5880   20.8170    5.2480 O   0  0  0  0  0  0  0  0  0  0  0  0
  -39.5760   20.4620    7.4950 O   0  0  0  0  0  0  0  0  0  0  0  0
  -30.6230   17.6218    7.5104 H   0  0  0  0  0  0  0  0  0  0  0  0
  -32.0295   17.5928    6.3935 H   0  0  0  0  0  0  0  0  0  0  0  0
  -30.9114   18.9987    6.3935 H   0  0  0  0  0  0  0  0  0  0  0  0
  -32.3711   18.2225    8.9259 H   0  0  0  0  0  0  0  0  0  0  0  0
  -31.7294   19.8405    8.3690 H   0  0  0  0  0  0  0  0  0  0  0  0
  -34.3117   18.4556    7.6931 H   0  0  0  0  0  0  0  0  0  0  0  0
  -33.9616   20.1800    8.1799 H   0  0  0  0  0  0  0  0  0  0  0  0
  -32.7795   19.3196    5.5995 H   0  0  0  0  0  0  0  0  0  0  0  0
  -34.5853   19.4045    5.6511 H   0  0  0  0  0  0  0  0  0  0  0  0
  -34.2143   21.5737    5.1332 H   0  0  0  0  0  0  0  0  0  0  0  0
  -33.9371   21.6627    6.9633 H   0  0  0  0  0  0  0  0  0  0  0  0
  -31.4445   21.2253    5.4098 H   0  0  0  0  0  0  0  0  0  0  0  0
  -30.8206   23.4520    5.8307 H   0  0  0  0  0  0  0  0  0  0  0  0
  -33.0183   24.9325    5.7413 H   0  0  0  0  0  0  0  0  0  0  0  0
  -33.7253   23.7172    6.8836 H   0  0  0  0  0  0  0  0  0  0  0  0
  -31.8640   25.9829    7.5511 H   0  0  0  0  0  0  0  0  0  0  0  0
  -31.6480   25.0542    9.7297 H   0  0  0  0  0  0  0  0  0  0  0  0
  -32.6077   22.4457    8.3770 H   0  0  0  0  0  0  0  0  0  0  0  0
  -31.7718   22.6254    9.9878 H   0  0  0  0  0  0  0  0  0  0  0  0
  -33.7519   22.4351   10.9645 H   0  0  0  0  0  0  0  0  0  0  0  0
  -34.1812   24.0386   10.2058 H   0  0  0  0  0  0  0  0  0  0  0  0
  -34.5229   21.6318    8.4952 H   0  0  0  0  0  0  0  0  0  0  0  0
  -35.6558   21.8237    9.9135 H   0  0  0  0  0  0  0  0  0  0  0  0
  -36.5009   23.8586    9.1179 H   0  0  0  0  0  0  0  0  0  0  0  0
  -35.1437   24.0208    7.9074 H   0  0  0  0  0  0  0  0  0  0  0  0
  -37.6778   23.1752    7.3034 H   0  0  0  0  0  0  0  0  0  0  0  0
  -36.1812   22.7815    6.3670 H   0  0  0  0  0  0  0  0  0  0  0  0
  -35.9289   20.7382    7.8736 H   0  0  0  0  0  0  0  0  0  0  0  0
  -37.6163   21.0972    8.4490 H   0  0  0  0  0  0  0  0  0  0  0  0
  -37.0062   20.8147    5.5046 H   0  0  0  0  0  0  0  0  0  0  0  0
  -37.2897   19.3658    6.5762 H   0  0  0  0  0  0  0  0  0  0  0  0
  1  2  1  0
  2  3  1  0
  3  4  1  0
  4  5  1  0
  5  6  1  0
  6  7  2  0
  7  8  1  0
  8  9  1  0
  9 10  2  0
 10 11  1  0
 11 12  1  0
 12 13  1  0
 13 14  1  0
 14 15  1  0
 15 16  1  0
 16 17  1  0
 17 18  1  0
 18 19  2  0
 18 20  1  0
  1 21  1  0
  1 22  1  0
  1 23  1  0
  2 24  1  0
  2 25  1  0
  3 26  1  0
  3 27  1  0
  4 28  1  0
  4 29  1  0
  5 30  1  0
  5 31  1  0
  6 32  1  0
  7 33  1  0
  8 34  1  0
  8 35  1  0
  9 36  1  0
 10 37  1  0
 11 38  1  0
 11 39  1  0
 12 40  1  0
 12 41  1  0
 13 42  1  0
 13 43  1  0
 14 44  1  0
 14 45  1  0
 15 46  1  0
 15 47  1  0
 16 48  1  0
 16 49  1  0
 17 50  1  0
 17 51  1  0
M  CHG  1  20  -1
M  END
>  <meeko>  (12) 
{"is_sidechain": [false], "free_energy": -6.074, "intermolecular_energy": -11.296, "internal_energy": -2.684}

$$$$
linoleate_Nlobe_run01
     RDKit          3D

 51 50  0  0  0  0  0  0  0  0999 V2000
  -34.3080   18.6520   12.2080 C   0  0  0  0  0  0  0  0  0  0  0  0
  -34.1760   19.2970   10.8370 C   0  0  0  0  0  0  0  0  0  0  0  0
  -34.6970   20.7340   10.7840 C   0  0  0  0  0  0  0  0  0  0  0  0
  -35.0100   21.2150    9.3640 C   0  0  0  0  0  0  0  0  0  0  0  0
  -35.1170   22.7440    9.3090 C   0  0  0  0  0  0  0  0  0  0  0  0
  -35.4290   23.3540    7.9690 C   0  0  0  0  0  0  0  0  0  0  0  0
  -34.5810   23.9940    7.1480 C   0  0  0  0  0  0  0  0  0  0  0  0
  -33.1270   24.2080    7.4600 C   0  0  0  0  0  0  0  0  0  0  0  0
  -32.2440   23.6060    6.4070 C   0  0  0  0  0  0  0  0  0  0  0  0
  -31.7210   22.3740    6.4890 C   0  0  0  0  0  0  0  0  0  0  0  0
  -31.9550   21.4430    7.6450 C   0  0  0  0  0  0  0  0  0  0  0  0
  -32.0750   19.9750    7.2210 C   0  0  0  0  0  0  0  0  0  0  0  0
  -32.7870   19.7890    5.8770 C   0  0  0  0  0  0  0  0  0  0  0  0
  -34.2720   20.1650    5.9200 C   0  0  0  0  0  0  0  0  0  0  0  0
  -34.7610   20.8510    4.6420 C   0  0  0  0  0  0  0  0  0  0  0  0
  -36.1520   21.4660    4.8430 C   0  0  0  0  0  0  0  0  0  0  0  0
  -37.2650   20.4200    4.7940 C   0  0  0  0  0  0  0  0  0  0  0  0
  -38.2870   20.5900    5.8920 C   0  0  0  0  0  0  0  0  0  0  0  0
  -39.4810   20.7960    5.7390 O   0  0  0  0  0  0  0  0  0  0  0  0
  -37.6960   20.4510    7.1060 O   0  0  0  0  0  0  0  0  0  0  0  0
  -34.1524   19.4124   12.9875 H   0  0  0  0  0  0  0  0  0  0  0  0
  -35.3135   18.2186   12.3141 H   0  0  0  0  0  0  0  0  0  0  0  0
  -33.5536   17.8585   12.3141 H   0  0  0  0  0  0  0  0  0  0  0  0
  -33.1125   19.3020   10.5559 H   0  0  0  0  0  0  0  0  0  0  0  0
  -34.7896   18.7054   10.1416 H   0  0  0  0  0  0  0  0  0  0  0  0
  -35.6175   20.7936   11.3833 H   0  0  0  0  0  0  0  0  0  0  0  0
  -33.9014   21.3829   11.1789 H   0  0  0  0  0  0  0  0  0  0  0  0
  -34.2064   20.8867    8.6884 H   0  0  0  0  0  0  0  0  0  0  0  0
  -35.9748   20.7863    9.0550 H   0  0  0  0  0  0  0  0  0  0  0  0
  -35.9120   23.0474   10.0061 H   0  0  0  0  0  0  0  0  0  0  0  0
  -34.1131   23.1125    9.5666 H   0  0  0  0  0  0  0  0  0  0  0  0
  -36.4694   23.2655    7.6231 H   0  0  0  0  0  0  0  0  0  0  0  0
  -34.9717   24.3825    6.1959 H   0  0  0  0  0  0  0  0  0  0  0  0
  -32.9291   25.2885    7.5174 H   0  0  0  0  0  0  0  0  0  0  0  0
  -32.9041   23.7174    8.4190 H   0  0  0  0  0  0  0  0  0  0  0  0
  -32.0125   24.2096    5.5170 H   0  0  0  0  0  0  0  0  0  0  0  0
  -31.0842   22.0249    5.6627 H   0  0  0  0  0  0  0  0  0  0  0  0
  -31.1126   21.5370    8.3461 H   0  0  0  0  0  0  0  0  0  0  0  0
  -32.9108   21.7295    8.1081 H   0  0  0  0  0  0  0  0  0  0  0  0
  -31.0633   19.5505    7.1419 H   0  0  0  0  0  0  0  0  0  0  0  0
  -32.6803   19.4637    7.9841 H   0  0  0  0  0  0  0  0  0  0  0  0
  -32.2884   20.4212    5.1275 H   0  0  0  0  0  0  0  0  0  0  0  0
  -32.7290   18.7203    5.6230 H   0  0  0  0  0  0  0  0  0  0  0  0
  -34.8600   19.2477    6.0706 H   0  0  0  0  0  0  0  0  0  0  0  0
  -34.4025   20.8815    6.7443 H   0  0  0  0  0  0  0  0  0  0  0  0
  -34.0526   21.6466    4.3677 H   0  0  0  0  0  0  0  0  0  0  0  0
  -34.8242   20.0974    3.8432 H   0  0  0  0  0  0  0  0  0  0  0  0
  -36.1792   21.9649    5.8230 H   0  0  0  0  0  0  0  0  0  0  0  0
  -36.3252   22.1781    4.0227 H   0  0  0  0  0  0  0  0  0  0  0  0
  -37.7772   20.4992    3.8238 H   0  0  0  0  0  0  0  0  0  0  0  0
  -36.7954   19.4350    4.9330 H   0  0  0  0  0  0  0  0  0  0  0  0
  1  2  1  0
  2  3  1  0
  3  4  1  0
  4  5  1  0
  5  6  1  0
  6  7  2  0
  7  8  1  0
  8  9  1  0
  9 10  2  0
 10 11  1  0
 11 12  1  0
 12 13  1  0
 13 14  1  0
 14 15  1  0
 15 16  1  0
 16 17  1  0
 17 18  1  0
 18 19  2  0
 18 20  1  0
  1 21  1  0
  1 22  1  0
  1 23  1  0
  2 24  1  0
  2 25  1  0
  3 26  1  0
  3 27  1  0
  4 28  1  0
  4 29  1  0
  5 30  1  0
  5 31  1  0
  6 32  1  0
  7 33  1  0
  8 34  1  0
  8 35  1  0
  9 36  1  0
 10 37  1  0
 11 38  1  0
 11 39  1  0
 12 40  1  0
 12 41  1  0
 13 42  1  0
 13 43  1  0
 14 44  1  0
 14 45  1  0
 15 46  1  0
 15 47  1  0
 16 48  1  0
 16 49  1  0
 17 50  1  0
 17 51  1  0
M  CHG  1  20  -1
M  END
>  <meeko>  (13) 
{"is_sidechain": [false], "free_energy": -6.057, "intermolecular_energy": -11.417, "internal_energy": -2.53}

$$$$
linoleate_Nlobe_run01
     RDKit          3D

 51 50  0  0  0  0  0  0  0  0999 V2000
  -33.4750   20.7270    4.5790 C   0  0  0  0  0  0  0  0  0  0  0  0
  -33.7370   20.0810    5.9310 C   0  0  0  0  0  0  0  0  0  0  0  0
  -32.4600   19.6990    6.6830 C   0  0  0  0  0  0  0  0  0  0  0  0
  -32.7270   18.9150    7.9710 C   0  0  0  0  0  0  0  0  0  0  0  0
  -34.0680   19.3190    8.5960 C   0  0  0  0  0  0  0  0  0  0  0  0
  -34.1430   19.3190   10.0990 C   0  0  0  0  0  0  0  0  0  0  0  0
  -34.4670   20.3470   10.8990 C   0  0  0  0  0  0  0  0  0  0  0  0
  -34.8170   21.7160   10.3900 C   0  0  0  0  0  0  0  0  0  0  0  0
  -33.7360   22.7100   10.6950 C   0  0  0  0  0  0  0  0  0  0  0  0
  -32.9120   23.2230    9.7690 C   0  0  0  0  0  0  0  0  0  0  0  0
  -32.9720   22.8660    8.3100 C   0  0  0  0  0  0  0  0  0  0  0  0
  -33.4270   24.0310    7.4240 C   0  0  0  0  0  0  0  0  0  0  0  0
  -34.8340   23.8400    6.8470 C   0  0  0  0  0  0  0  0  0  0  0  0
  -35.9390   23.9140    7.9060 C   0  0  0  0  0  0  0  0  0  0  0  0
  -37.1330   23.0060    7.6010 C   0  0  0  0  0  0  0  0  0  0  0  0
  -36.6700   21.6030    7.1880 C   0  0  0  0  0  0  0  0  0  0  0  0
  -37.8180   20.5950    7.1580 C   0  0  0  0  0  0  0  0  0  0  0  0
  -38.4000   20.3990    5.7790 C   0  0  0  0  0  0  0  0  0  0  0  0
  -39.5860   20.3070    5.5050 O   0  0  0  0  0  0  0  0  0  0  0  0
  -37.4070   20.3670    4.8530 O   0  0  0  0  0  0  0  0  0  0  0  0
  -33.0654   21.7369    4.7284 H   0  0  0  0  0  0  0  0  0  0  0  0
  -32.7528   20.1181    4.0155 H   0  0  0  0  0  0  0  0  0  0  0  0
  -34.4174   20.7932    4.0155 H   0  0  0  0  0  0  0  0  0  0  0  0
  -34.3072   20.7889    6.5504 H   0  0  0  0  0  0  0  0  0  0  0  0
  -34.2921   19.1502    5.7426 H   0  0  0  0  0  0  0  0  0  0  0  0
  -31.8366   19.0804    6.0206 H   0  0  0  0  0  0  0  0  0  0  0  0
  -31.9583   20.6351    6.9695 H   0  0  0  0  0  0  0  0  0  0  0  0
  -32.7482   17.8399    7.7392 H   0  0  0  0  0  0  0  0  0  0  0  0
  -31.9250   19.1402    8.6894 H   0  0  0  0  0  0  0  0  0  0  0  0
  -34.3029   20.3368    8.2510 H   0  0  0  0  0  0  0  0  0  0  0  0
  -34.7811   18.5466    8.2720 H   0  0  0  0  0  0  0  0  0  0  0  0
  -33.9053   18.3684   10.5989 H   0  0  0  0  0  0  0  0  0  0  0  0
  -34.4767   20.1777   11.9858 H   0  0  0  0  0  0  0  0  0  0  0  0
  -34.9596   21.6663    9.3004 H   0  0  0  0  0  0  0  0  0  0  0  0
  -35.7391   22.0449   10.8916 H   0  0  0  0  0  0  0  0  0  0  0  0
  -33.6117   23.0371   11.7379 H   0  0  0  0  0  0  0  0  0  0  0  0
  -32.1496   23.9455   10.0957 H   0  0  0  0  0  0  0  0  0  0  0  0
  -31.9696   22.5501    7.9854 H   0  0  0  0  0  0  0  0  0  0  0  0
  -33.7135   22.0610    8.1996 H   0  0  0  0  0  0  0  0  0  0  0  0
  -33.4185   24.9516    8.0260 H   0  0  0  0  0  0  0  0  0  0  0  0
  -32.7308   24.0853    6.5741 H   0  0  0  0  0  0  0  0  0  0  0  0
  -35.0142   24.6261    6.0990 H   0  0  0  0  0  0  0  0  0  0  0  0
  -34.8715   22.8325    6.4071 H   0  0  0  0  0  0  0  0  0  0  0  0
  -35.5134   23.6168    8.8758 H   0  0  0  0  0  0  0  0  0  0  0  0
  -36.3114   24.9490    7.9159 H   0  0  0  0  0  0  0  0  0  0  0  0
  -37.7623   22.9264    8.4997 H   0  0  0  0  0  0  0  0  0  0  0  0
  -37.7015   23.4451    6.7679 H   0  0  0  0  0  0  0  0  0  0  0  0
  -36.2236   21.6597    6.1842 H   0  0  0  0  0  0  0  0  0  0  0  0
  -35.9404   21.2576    7.9352 H   0  0  0  0  0  0  0  0  0  0  0  0
  -37.4427   19.6265    7.5202 H   0  0  0  0  0  0  0  0  0  0  0  0
  -38.6194   20.9925    7.7981 H   0  0  0  0  0  0  0  0  0  0  0  0
  1  2  1  0
  2  3  1  0
  3  4  1  0
  4  5  1  0
  5  6  1  0
  6  7  2  0
  7  8  1  0
  8  9  1  0
  9 10  2  0
 10 11  1  0
 11 12  1  0
 12 13  1  0
 13 14  1  0
 14 15  1  0
 15 16  1  0
 16 17  1  0
 17 18  1  0
 18 19  2  0
 18 20  1  0
  1 21  1  0
  1 22  1  0
  1 23  1  0
  2 24  1  0
  2 25  1  0
  3 26  1  0
  3 27  1  0
  4 28  1  0
  4 29  1  0
  5 30  1  0
  5 31  1  0
  6 32  1  0
  7 33  1  0
  8 34  1  0
  8 35  1  0
  9 36  1  0
 10 37  1  0
 11 38  1  0
 11 39  1  0
 12 40  1  0
 12 41  1  0
 13 42  1  0
 13 43  1  0
 14 44  1  0
 14 45  1  0
 15 46  1  0
 15 47  1  0
 16 48  1  0
 16 49  1  0
 17 50  1  0
 17 51  1  0
M  CHG  1  20  -1
M  END
>  <meeko>  (14) 
{"is_sidechain": [false], "free_energy": -5.949, "intermolecular_energy": -10.946, "internal_energy": -2.807}

$$$$
linoleate_Nlobe_run01
     RDKit          3D

 51 50  0  0  0  0  0  0  0  0999 V2000
  -38.3910   21.3690    7.1700 C   0  0  0  0  0  0  0  0  0  0  0  0
  -37.3520   20.5210    6.4530 C   0  0  0  0  0  0  0  0  0  0  0  0
  -37.4950   20.5410    4.9290 C   0  0  0  0  0  0  0  0  0  0  0  0
  -36.1540   20.6410    4.1960 C   0  0  0  0  0  0  0  0  0  0  0  0
  -34.9790   20.4510    5.1640 C   0  0  0  0  0  0  0  0  0  0  0  0
  -33.5960   20.6000    4.5900 C   0  0  0  0  0  0  0  0  0  0  0  0
  -32.5440   19.7870    4.7760 C   0  0  0  0  0  0  0  0  0  0  0  0
  -32.5930   18.5510    5.6290 C   0  0  0  0  0  0  0  0  0  0  0  0
  -31.7970   18.7200    6.8890 C   0  0  0  0  0  0  0  0  0  0  0  0
  -32.3470   18.8820    8.1020 C   0  0  0  0  0  0  0  0  0  0  0  0
  -33.8290   18.9130    8.3470 C   0  0  0  0  0  0  0  0  0  0  0  0
  -34.2830   20.1500    9.1300 C   0  0  0  0  0  0  0  0  0  0  0  0
  -34.2850   21.4320    8.2890 C   0  0  0  0  0  0  0  0  0  0  0  0
  -34.8990   22.6330    9.0170 C   0  0  0  0  0  0  0  0  0  0  0  0
  -35.5620   23.6390    8.0730 C   0  0  0  0  0  0  0  0  0  0  0  0
  -34.6370   23.9930    6.9030 C   0  0  0  0  0  0  0  0  0  0  0  0
  -33.4780   24.8950    7.3270 C   0  0  0  0  0  0  0  0  0  0  0  0
  -32.1430   24.1910    7.3160 C   0  0  0  0  0  0  0  0  0  0  0  0
  -31.2840   24.2640    8.1810 O   0  0  0  0  0  0  0  0  0  0  0  0
  -32.0300   23.4210    6.2040 O   0  0  0  0  0  0  0  0  0  0  0  0
  -38.2627   21.2643    8.2575 H   0  0  0  0  0  0  0  0  0  0  0  0
  -38.2630   22.4239    6.8856 H   0  0  0  0  0  0  0  0  0  0  0  0
  -39.3988   21.0322    6.8856 H   0  0  0  0  0  0  0  0  0  0  0  0
  -36.3528   20.8997    6.7141 H   0  0  0  0  0  0  0  0  0  0  0  0
  -37.5017   19.4811    6.7788 H   0  0  0  0  0  0  0  0  0  0  0  0
  -37.9973   19.6147    4.6133 H   0  0  0  0  0  0  0  0  0  0  0  0
  -38.0766   21.4375    4.6681 H   0  0  0  0  0  0  0  0  0  0  0  0
  -36.1098   19.8623    3.4203 H   0  0  0  0  0  0  0  0  0  0  0  0
  -36.0765   21.6413    3.7450 H   0  0  0  0  0  0  0  0  0  0  0  0
  -35.0872   21.1934    5.9684 H   0  0  0  0  0  0  0  0  0  0  0  0
  -35.0430   19.4030    5.4921 H   0  0  0  0  0  0  0  0  0  0  0  0
  -33.4279   21.4747    3.9445 H   0  0  0  0  0  0  0  0  0  0  0  0
  -31.5963   20.0390    4.2777 H   0  0  0  0  0  0  0  0  0  0  0  0
  -33.6398   18.3405    5.8932 H   0  0  0  0  0  0  0  0  0  0  0  0
  -32.1585   17.7188    5.0556 H   0  0  0  0  0  0  0  0  0  0  0  0
  -30.6996   18.7106    6.8143 H   0  0  0  0  0  0  0  0  0  0  0  0
  -31.6754   18.9986    8.9653 H   0  0  0  0  0  0  0  0  0  0  0  0
  -34.3447   18.9049    7.3754 H   0  0  0  0  0  0  0  0  0  0  0  0
  -34.0798   18.0304    8.9537 H   0  0  0  0  0  0  0  0  0  0  0  0
  -35.3036   19.9737    9.5005 H   0  0  0  0  0  0  0  0  0  0  0  0
  -33.5648   20.2988    9.9498 H   0  0  0  0  0  0  0  0  0  0  0  0
  -33.2460   21.6778    8.0245 H   0  0  0  0  0  0  0  0  0  0  0  0
  -34.9038   21.2381    7.4005 H   0  0  0  0  0  0  0  0  0  0  0  0
  -35.6580   22.2632    9.7220 H   0  0  0  0  0  0  0  0  0  0  0  0
  -34.0788   23.1580    9.5286 H   0  0  0  0  0  0  0  0  0  0  0  0
  -36.4904   23.2017    7.6770 H   0  0  0  0  0  0  0  0  0  0  0  0
  -35.7768   24.5580    8.6380 H   0  0  0  0  0  0  0  0  0  0  0  0
  -34.2255   23.0627    6.4844 H   0  0  0  0  0  0  0  0  0  0  0  0
  -35.2332   24.5415    6.1589 H   0  0  0  0  0  0  0  0  0  0  0  0
  -33.4286   25.7493    6.6358 H   0  0  0  0  0  0  0  0  0  0  0  0
  -33.6721   25.2124    8.3622 H   0  0  0  0  0  0  0  0  0  0  0  0
  1  2  1  0
  2  3  1  0
  3  4  1  0
  4  5  1  0
  5  6  1  0
  6  7  2  0
  7  8  1  0
  8  9  1  0
  9 10  2  0
 10 11  1  0
 11 12  1  0
 12 13  1  0
 13 14  1  0
 14 15  1  0
 15 16  1  0
 16 17  1  0
 17 18  1  0
 18 19  2  0
 18 20  1  0
  1 21  1  0
  1 22  1  0
  1 23  1  0
  2 24  1  0
  2 25  1  0
  3 26  1  0
  3 27  1  0
  4 28  1  0
  4 29  1  0
  5 30  1  0
  5 31  1  0
  6 32  1  0
  7 33  1  0
  8 34  1  0
  8 35  1  0
  9 36  1  0
 10 37  1  0
 11 38  1  0
 11 39  1  0
 12 40  1  0
 12 41  1  0
 13 42  1  0
 13 43  1  0
 14 44  1  0
 14 45  1  0
 15 46  1  0
 15 47  1  0
 16 48  1  0
 16 49  1  0
 17 50  1  0
 17 51  1  0
M  CHG  1  20  -1
M  END
>  <meeko>  (15) 
{"is_sidechain": [false], "free_energy": -5.946, "intermolecular_energy": -11.334, "internal_energy": -2.412}

$$$$
linoleate_Nlobe_run01
     RDKit          3D

 51 50  0  0  0  0  0  0  0  0999 V2000
  -34.6440   20.6690   10.0230 C   0  0  0  0  0  0  0  0  0  0  0  0
  -33.9930   19.3830    9.5400 C   0  0  0  0  0  0  0  0  0  0  0  0
  -34.0230   19.2160    8.0190 C   0  0  0  0  0  0  0  0  0  0  0  0
  -32.8250   18.4360    7.4700 C   0  0  0  0  0  0  0  0  0  0  0  0
  -32.2000   19.1560    6.2690 C   0  0  0  0  0  0  0  0  0  0  0  0
  -33.0670   20.1560    5.5520 C   0  0  0  0  0  0  0  0  0  0  0  0
  -32.8960   21.4860    5.4910 C   0  0  0  0  0  0  0  0  0  0  0  0
  -31.7630   22.2090    6.1620 C   0  0  0  0  0  0  0  0  0  0  0  0
  -31.9180   22.2100    7.6540 C   0  0  0  0  0  0  0  0  0  0  0  0
  -32.4170   23.2430    8.3500 C   0  0  0  0  0  0  0  0  0  0  0  0
  -32.8830   24.5250    7.7210 C   0  0  0  0  0  0  0  0  0  0  0  0
  -34.3360   24.4630    7.2360 C   0  0  0  0  0  0  0  0  0  0  0  0
  -35.2870   23.8200    8.2500 C   0  0  0  0  0  0  0  0  0  0  0  0
  -36.5410   23.2170    7.6080 C   0  0  0  0  0  0  0  0  0  0  0  0
  -36.2670   21.9200    6.8420 C   0  0  0  0  0  0  0  0  0  0  0  0
  -37.2660   20.8250    7.2330 C   0  0  0  0  0  0  0  0  0  0  0  0
  -38.5310   20.8560    6.3750 C   0  0  0  0  0  0  0  0  0  0  0  0
  -39.7600   21.2760    7.1450 C   0  0  0  0  0  0  0  0  0  0  0  0
  -40.1370   22.4220    7.3300 O   0  0  0  0  0  0  0  0  0  0  0  0
  -40.4250   20.1810    7.5940 O   0  0  0  0  0  0  0  0  0  0  0  0
  -34.6522   20.6852   11.1229 H   0  0  0  0  0  0  0  0  0  0  0  0
  -34.0741   21.5318    9.6478 H   0  0  0  0  0  0  0  0  0  0  0  0
  -35.6768   20.7205    9.6478 H   0  0  0  0  0  0  0  0  0  0  0  0
  -32.9436   19.3790    9.8698 H   0  0  0  0  0  0  0  0  0  0  0  0
  -34.5687   18.5490    9.9679 H   0  0  0  0  0  0  0  0  0  0  0  0
  -34.9436   18.6798    7.7450 H   0  0  0  0  0  0  0  0  0  0  0  0
  -33.9833   20.2240    7.5804 H   0  0  0  0  0  0  0  0  0  0  0  0
  -32.0684   18.3356    8.2621 H   0  0  0  0  0  0  0  0  0  0  0  0
  -33.1742   17.4463    7.1406 H   0  0  0  0  0  0  0  0  0  0  0  0
  -31.3059   19.6871    6.6275 H   0  0  0  0  0  0  0  0  0  0  0  0
  -32.0008   18.3654    5.5306 H   0  0  0  0  0  0  0  0  0  0  0  0
  -33.9392   19.7512    5.0177 H   0  0  0  0  0  0  0  0  0  0  0  0
  -33.6250   22.0785    4.9187 H   0  0  0  0  0  0  0  0  0  0  0  0
  -30.8172   21.7114    5.9013 H   0  0  0  0  0  0  0  0  0  0  0  0
  -31.7655   23.2526    5.8142 H   0  0  0  0  0  0  0  0  0  0  0  0
  -31.6049   21.3133    8.2089 H   0  0  0  0  0  0  0  0  0  0  0  0
  -32.4889   23.1455    9.4433 H   0  0  0  0  0  0  0  0  0  0  0  0
  -32.7960   25.3315    8.4640 H   0  0  0  0  0  0  0  0  0  0  0  0
  -32.2503   24.7071    6.8398 H   0  0  0  0  0  0  0  0  0  0  0  0
  -34.6810   25.4880    7.0353 H   0  0  0  0  0  0  0  0  0  0  0  0
  -34.3511   23.8358    6.3325 H   0  0  0  0  0  0  0  0  0  0  0  0
  -34.7461   23.0205    8.7775 H   0  0  0  0  0  0  0  0  0  0  0  0
  -35.6211   24.6152    8.9327 H   0  0  0  0  0  0  0  0  0  0  0  0
  -37.2721   23.0053    8.4022 H   0  0  0  0  0  0  0  0  0  0  0  0
  -36.9187   23.9506    6.8806 H   0  0  0  0  0  0  0  0  0  0  0  0
  -36.3527   22.1154    5.7629 H   0  0  0  0  0  0  0  0  0  0  0  0
  -35.2537   21.5737    7.0936 H   0  0  0  0  0  0  0  0  0  0  0  0
  -36.7811   19.8451    7.1120 H   0  0  0  0  0  0  0  0  0  0  0  0
  -37.5647   21.0011    8.2769 H   0  0  0  0  0  0  0  0  0  0  0  0
  -38.3762   21.5657    5.5489 H   0  0  0  0  0  0  0  0  0  0  0  0
  -38.7058   19.8324    6.0121 H   0  0  0  0  0  0  0  0  0  0  0  0
  1  2  1  0
  2  3  1  0
  3  4  1  0
  4  5  1  0
  5  6  1  0
  6  7  2  0
  7  8  1  0
  8  9  1  0
  9 10  2  0
 10 11  1  0
 11 12  1  0
 12 13  1  0
 13 14  1  0
 14 15  1  0
 15 16  1  0
 16 17  1  0
 17 18  1  0
 18 19  2  0
 18 20  1  0
  1 21  1  0
  1 22  1  0
  1 23  1  0
  2 24  1  0
  2 25  1  0
  3 26  1  0
  3 27  1  0
  4 28  1  0
  4 29  1  0
  5 30  1  0
  5 31  1  0
  6 32  1  0
  7 33  1  0
  8 34  1  0
  8 35  1  0
  9 36  1  0
 10 37  1  0
 11 38  1  0
 11 39  1  0
 12 40  1  0
 12 41  1  0
 13 42  1  0
 13 43  1  0
 14 44  1  0
 14 45  1  0
 15 46  1  0
 15 47  1  0
 16 48  1  0
 16 49  1  0
 17 50  1  0
 17 51  1  0
M  CHG  1  20  -1
M  END
>  <meeko>  (16) 
{"is_sidechain": [false], "free_energy": -5.943, "intermolecular_energy": -11.138, "internal_energy": -2.602}

$$$$
linoleate_Nlobe_run01
     RDKit          3D

 51 50  0  0  0  0  0  0  0  0999 V2000
  -31.7900   24.7010    8.8530 C   0  0  0  0  0  0  0  0  0  0  0  0
  -31.8160   24.9820    7.3590 C   0  0  0  0  0  0  0  0  0  0  0  0
  -32.6380   23.9680    6.5600 C   0  0  0  0  0  0  0  0  0  0  0  0
  -31.7870   22.8760    5.9060 C   0  0  0  0  0  0  0  0  0  0  0  0
  -31.7620   21.6060    6.7640 C   0  0  0  0  0  0  0  0  0  0  0  0
  -32.5350   20.4220    6.2470 C   0  0  0  0  0  0  0  0  0  0  0  0
  -33.0410   19.4040    6.9600 C   0  0  0  0  0  0  0  0  0  0  0  0
  -32.9030   19.2880    8.4520 C   0  0  0  0  0  0  0  0  0  0  0  0
  -34.2320   19.4030    9.1380 C   0  0  0  0  0  0  0  0  0  0  0  0
  -34.7820   20.5700    9.5060 C   0  0  0  0  0  0  0  0  0  0  0  0
  -34.1340   21.9060    9.2760 C   0  0  0  0  0  0  0  0  0  0  0  0
  -35.1440   23.0220    8.9840 C   0  0  0  0  0  0  0  0  0  0  0  0
  -36.2190   22.6170    7.9700 C   0  0  0  0  0  0  0  0  0  0  0  0
  -35.6690   22.4100    6.5540 C   0  0  0  0  0  0  0  0  0  0  0  0
  -36.1770   21.1300    5.8870 C   0  0  0  0  0  0  0  0  0  0  0  0
  -37.2500   20.4480    6.7440 C   0  0  0  0  0  0  0  0  0  0  0  0
  -38.6430   20.5500    6.1260 C   0  0  0  0  0  0  0  0  0  0  0  0
  -39.6350   21.2650    7.0110 C   0  0  0  0  0  0  0  0  0  0  0  0
  -40.0970   22.3800    6.8210 O   0  0  0  0  0  0  0  0  0  0  0  0
  -39.9780   20.4760    8.0610 O   0  0  0  0  0  0  0  0  0  0  0  0
  -31.8776   25.6480    9.4058 H   0  0  0  0  0  0  0  0  0  0  0  0
  -32.6311   24.0431    9.1171 H   0  0  0  0  0  0  0  0  0  0  0  0
  -30.8425   24.2086    9.1171 H   0  0  0  0  0  0  0  0  0  0  0  0
  -32.2470   25.9815    7.2004 H   0  0  0  0  0  0  0  0  0  0  0  0
  -30.7789   24.9123    6.9991 H   0  0  0  0  0  0  0  0  0  0  0  0
  -33.3575   23.4889    7.2403 H   0  0  0  0  0  0  0  0  0  0  0  0
  -33.1364   24.5203    5.7497 H   0  0  0  0  0  0  0  0  0  0  0  0
  -32.2092   22.6345    4.9194 H   0  0  0  0  0  0  0  0  0  0  0  0
  -30.7572   23.2495    5.8057 H   0  0  0  0  0  0  0  0  0  0  0  0
  -30.7117   21.2969    6.8704 H   0  0  0  0  0  0  0  0  0  0  0  0
  -32.2582   21.8848    7.7053 H   0  0  0  0  0  0  0  0  0  0  0  0
  -32.7043   20.3875    5.1607 H   0  0  0  0  0  0  0  0  0  0  0  0
  -33.5856   18.6126    6.4241 H   0  0  0  0  0  0  0  0  0  0  0  0
  -32.4588   18.3115    8.6949 H   0  0  0  0  0  0  0  0  0  0  0  0
  -32.2610   20.1090    8.8039 H   0  0  0  0  0  0  0  0  0  0  0  0
  -34.7873   18.4777    9.3515 H   0  0  0  0  0  0  0  0  0  0  0  0
  -35.7625   20.5475   10.0041 H   0  0  0  0  0  0  0  0  0  0  0  0
  -33.5627   22.1775   10.1759 H   0  0  0  0  0  0  0  0  0  0  0  0
  -33.4875   21.8090    8.3914 H   0  0  0  0  0  0  0  0  0  0  0  0
  -35.6396   23.2995    9.9260 H   0  0  0  0  0  0  0  0  0  0  0  0
  -34.5840   23.8618    8.5469 H   0  0  0  0  0  0  0  0  0  0  0  0
  -36.6800   21.6767    8.3065 H   0  0  0  0  0  0  0  0  0  0  0  0
  -36.9467   23.4404    7.9200 H   0  0  0  0  0  0  0  0  0  0  0  0
  -35.9680   23.2685    5.9346 H   0  0  0  0  0  0  0  0  0  0  0  0
  -34.5760   22.3204    6.6396 H   0  0  0  0  0  0  0  0  0  0  0  0
  -36.6074   21.3824    4.9067 H   0  0  0  0  0  0  0  0  0  0  0  0
  -35.3304   20.4372    5.7714 H   0  0  0  0  0  0  0  0  0  0  0  0
  -36.9901   19.3849    6.8549 H   0  0  0  0  0  0  0  0  0  0  0  0
  -37.2771   20.9608    7.7168 H   0  0  0  0  0  0  0  0  0  0  0  0
  -38.5645   21.0976    5.1752 H   0  0  0  0  0  0  0  0  0  0  0  0
  -39.0130   19.5241    5.9825 H   0  0  0  0  0  0  0  0  0  0  0  0
  1  2  1  0
  2  3  1  0
  3  4  1  0
  4  5  1  0
  5  6  1  0
  6  7  2  0
  7  8  1  0
  8  9  1  0
  9 10  2  0
 10 11  1  0
 11 12  1  0
 12 13  1  0
 13 14  1  0
 14 15  1  0
 15 16  1  0
 16 17  1  0
 17 18  1  0
 18 19  2  0
 18 20  1  0
  1 21  1  0
  1 22  1  0
  1 23  1  0
  2 24  1  0
  2 25  1  0
  3 26  1  0
  3 27  1  0
  4 28  1  0
  4 29  1  0
  5 30  1  0
  5 31  1  0
  6 32  1  0
  7 33  1  0
  8 34  1  0
  8 35  1  0
  9 36  1  0
 10 37  1  0
 11 38  1  0
 11 39  1  0
 12 40  1  0
 12 41  1  0
 13 42  1  0
 13 43  1  0
 14 44  1  0
 14 45  1  0
 15 46  1  0
 15 47  1  0
 16 48  1  0
 16 49  1  0
 17 50  1  0
 17 51  1  0
M  CHG  1  20  -1
M  END
>  <meeko>  (17) 
{"is_sidechain": [false], "free_energy": -5.932, "intermolecular_energy": -10.958, "internal_energy": -2.763}

$$$$
linoleate_Nlobe_run01
     RDKit          3D

 51 50  0  0  0  0  0  0  0  0999 V2000
  -39.4050   20.1590    7.3630 C   0  0  0  0  0  0  0  0  0  0  0  0
  -38.9250   20.5940    5.9870 C   0  0  0  0  0  0  0  0  0  0  0  0
  -37.4100   20.4780    5.8040 C   0  0  0  0  0  0  0  0  0  0  0  0
  -36.6160   21.4410    6.6920 C   0  0  0  0  0  0  0  0  0  0  0  0
  -35.2170   21.6950    6.1190 C   0  0  0  0  0  0  0  0  0  0  0  0
  -34.9200   21.1050    4.7670 C   0  0  0  0  0  0  0  0  0  0  0  0
  -33.8200   20.4310    4.3960 C   0  0  0  0  0  0  0  0  0  0  0  0
  -32.6670   20.1530    5.3180 C   0  0  0  0  0  0  0  0  0  0  0  0
  -32.6080   18.7050    5.7050 C   0  0  0  0  0  0  0  0  0  0  0  0
  -32.6130   18.2720    6.9750 C   0  0  0  0  0  0  0  0  0  0  0  0
  -32.6800   19.1850    8.1660 C   0  0  0  0  0  0  0  0  0  0  0  0
  -34.0980   19.3390    8.7280 C   0  0  0  0  0  0  0  0  0  0  0  0
  -34.1540   19.2780   10.2580 C   0  0  0  0  0  0  0  0  0  0  0  0
  -34.5550   20.6090   10.9040 C   0  0  0  0  0  0  0  0  0  0  0  0
  -34.8340   21.7170    9.8860 C   0  0  0  0  0  0  0  0  0  0  0  0
  -33.7870   22.8330    9.9810 C   0  0  0  0  0  0  0  0  0  0  0  0
  -33.4760   23.4580    8.6220 C   0  0  0  0  0  0  0  0  0  0  0  0
  -32.0150   23.3770    8.2510 C   0  0  0  0  0  0  0  0  0  0  0  0
  -31.4800   22.4750    7.6250 O   0  0  0  0  0  0  0  0  0  0  0  0
  -31.3600   24.4820    8.6900 O   0  0  0  0  0  0  0  0  0  0  0  0
  -38.8254   20.6842    8.1365 H   0  0  0  0  0  0  0  0  0  0  0  0
  -40.4715   20.4046    7.4739 H   0  0  0  0  0  0  0  0  0  0  0  0
  -39.2652   19.0736    7.4739 H   0  0  0  0  0  0  0  0  0  0  0  0
  -39.4163   19.9633    5.2314 H   0  0  0  0  0  0  0  0  0  0  0  0
  -39.1839   21.6572    5.8752 H   0  0  0  0  0  0  0  0  0  0  0  0
  -37.1069   19.4489    6.0471 H   0  0  0  0  0  0  0  0  0  0  0  0
  -37.1874   20.7403    4.7592 H   0  0  0  0  0  0  0  0  0  0  0  0
  -37.1562   22.3970    6.7577 H   0  0  0  0  0  0  0  0  0  0  0  0
  -36.5081   20.9882    7.6886 H   0  0  0  0  0  0  0  0  0  0  0  0
  -35.0808   22.7840    6.0440 H   0  0  0  0  0  0  0  0  0  0  0  0
  -34.5267   21.1905    6.8110 H   0  0  0  0  0  0  0  0  0  0  0  0
  -35.6918   21.2415    3.9952 H   0  0  0  0  0  0  0  0  0  0  0  0
  -33.7596   20.0625    3.3613 H   0  0  0  0  0  0  0  0  0  0  0  0
  -31.7299   20.4256    4.8104 H   0  0  0  0  0  0  0  0  0  0  0  0
  -32.8054   20.7488    6.2323 H   0  0  0  0  0  0  0  0  0  0  0  0
  -32.5578   17.9552    4.9017 H   0  0  0  0  0  0  0  0  0  0  0  0
  -32.5654   17.1877    7.1540 H   0  0  0  0  0  0  0  0  0  0  0  0
  -32.0328   18.7771    8.9564 H   0  0  0  0  0  0  0  0  0  0  0  0
  -32.3491   20.1804    7.8347 H   0  0  0  0  0  0  0  0  0  0  0  0
  -34.4989   20.3102    8.4025 H   0  0  0  0  0  0  0  0  0  0  0  0
  -34.6928   18.4959    8.3465 H   0  0  0  0  0  0  0  0  0  0  0  0
  -34.8884   18.5129   10.5502 H   0  0  0  0  0  0  0  0  0  0  0  0
  -33.1407   19.0367   10.6116 H   0  0  0  0  0  0  0  0  0  0  0  0
  -35.4643   20.4470   11.5015 H   0  0  0  0  0  0  0  0  0  0  0  0
  -33.7066   20.9400   11.5210 H   0  0  0  0  0  0  0  0  0  0  0  0
  -34.8106   21.2882    8.8733 H   0  0  0  0  0  0  0  0  0  0  0  0
  -35.8229   22.1476   10.1018 H   0  0  0  0  0  0  0  0  0  0  0  0
  -34.1670   23.6176   10.6518 H   0  0  0  0  0  0  0  0  0  0  0  0
  -32.8574   22.3885   10.3660 H   0  0  0  0  0  0  0  0  0  0  0  0
  -34.0616   22.9326    7.8532 H   0  0  0  0  0  0  0  0  0  0  0  0
  -33.7389   24.5243    8.6845 H   0  0  0  0  0  0  0  0  0  0  0  0
  1  2  1  0
  2  3  1  0
  3  4  1  0
  4  5  1  0
  5  6  1  0
  6  7  2  0
  7  8  1  0
  8  9  1  0
  9 10  2  0
 10 11  1  0
 11 12  1  0
 12 13  1  0
 13 14  1  0
 14 15  1  0
 15 16  1  0
 16 17  1  0
 17 18  1  0
 18 19  2  0
 18 20  1  0
  1 21  1  0
  1 22  1  0
  1 23  1  0
  2 24  1  0
  2 25  1  0
  3 26  1  0
  3 27  1  0
  4 28  1  0
  4 29  1  0
  5 30  1  0
  5 31  1  0
  6 32  1  0
  7 33  1  0
  8 34  1  0
  8 35  1  0
  9 36  1  0
 10 37  1  0
 11 38  1  0
 11 39  1  0
 12 40  1  0
 12 41  1  0
 13 42  1  0
 13 43  1  0
 14 44  1  0
 14 45  1  0
 15 46  1  0
 15 47  1  0
 16 48  1  0
 16 49  1  0
 17 50  1  0
 17 51  1  0
M  CHG  1  20  -1
M  END
>  <meeko>  (18) 
{"is_sidechain": [false], "free_energy": -5.928, "intermolecular_energy": -11.602, "internal_energy": -2.111}

$$$$
linoleate_Nlobe_run01
     RDKit          3D

 51 50  0  0  0  0  0  0  0  0999 V2000
  -39.0440   21.3910    7.0130 C   0  0  0  0  0  0  0  0  0  0  0  0
  -37.7260   20.9450    6.4000 C   0  0  0  0  0  0  0  0  0  0  0  0
  -37.8370   20.5660    4.9210 C   0  0  0  0  0  0  0  0  0  0  0  0
  -36.5160   20.7030    4.1590 C   0  0  0  0  0  0  0  0  0  0  0  0
  -35.3790   21.1290    5.0960 C   0  0  0  0  0  0  0  0  0  0  0  0
  -34.3340   20.0920    5.4100 C   0  0  0  0  0  0  0  0  0  0  0  0
  -33.0320   20.2980    5.6630 C   0  0  0  0  0  0  0  0  0  0  0  0
  -32.3930   21.6570    5.6680 C   0  0  0  0  0  0  0  0  0  0  0  0
  -31.7530   21.9590    6.9900 C   0  0  0  0  0  0  0  0  0  0  0  0
  -31.7130   23.1840    7.5360 C   0  0  0  0  0  0  0  0  0  0  0  0
  -32.3060   24.4050    6.8910 C   0  0  0  0  0  0  0  0  0  0  0  0
  -33.6020   24.8710    7.5640 C   0  0  0  0  0  0  0  0  0  0  0  0
  -34.8410   24.1040    7.0890 C   0  0  0  0  0  0  0  0  0  0  0  0
  -35.6340   23.4650    8.2340 C   0  0  0  0  0  0  0  0  0  0  0  0
  -35.1730   22.0460    8.5740 C   0  0  0  0  0  0  0  0  0  0  0  0
  -34.3330   22.0290    9.8570 C   0  0  0  0  0  0  0  0  0  0  0  0
  -34.8070   20.9710   10.8520 C   0  0  0  0  0  0  0  0  0  0  0  0
  -34.2790   19.5900   10.5470 C   0  0  0  0  0  0  0  0  0  0  0  0
  -33.8320   19.2110    9.4750 O   0  0  0  0  0  0  0  0  0  0  0  0
  -34.3370   18.8120   11.6570 O   0  0  0  0  0  0  0  0  0  0  0  0
  -38.9658   21.3645    8.1099 H   0  0  0  0  0  0  0  0  0  0  0  0
  -39.2720   22.4163    6.6863 H   0  0  0  0  0  0  0  0  0  0  0  0
  -39.8478   20.7148    6.6863 H   0  0  0  0  0  0  0  0  0  0  0  0
  -37.0019   21.7676    6.4951 H   0  0  0  0  0  0  0  0  0  0  0  0
  -37.4064   20.0426    6.9419 H   0  0  0  0  0  0  0  0  0  0  0  0
  -38.1724   19.5206    4.8529 H   0  0  0  0  0  0  0  0  0  0  0  0
  -38.5526   21.2623    4.4595 H   0  0  0  0  0  0  0  0  0  0  0  0
  -36.2621   19.7345    3.7034 H   0  0  0  0  0  0  0  0  0  0  0  0
  -36.6380   21.4748    3.3847 H   0  0  0  0  0  0  0  0  0  0  0  0
  -34.8687   21.9859    4.6319 H   0  0  0  0  0  0  0  0  0  0  0  0
  -35.8654   21.3480    6.0580 H   0  0  0  0  0  0  0  0  0  0  0  0
  -34.6762   19.0469    5.4349 H   0  0  0  0  0  0  0  0  0  0  0  0
  -32.3991   19.4245    5.8782 H   0  0  0  0  0  0  0  0  0  0  0  0
  -31.6241   21.6932    4.8822 H   0  0  0  0  0  0  0  0  0  0  0  0
  -33.1764   22.4072    5.4846 H   0  0  0  0  0  0  0  0  0  0  0  0
  -31.2899   21.1290    7.5437 H   0  0  0  0  0  0  0  0  0  0  0  0
  -31.2180   23.3012    8.5113 H   0  0  0  0  0  0  0  0  0  0  0  0
  -31.5706   25.2213    6.9444 H   0  0  0  0  0  0  0  0  0  0  0  0
  -32.5526   24.1403    5.8522 H   0  0  0  0  0  0  0  0  0  0  0  0
  -33.5007   24.7323    8.6505 H   0  0  0  0  0  0  0  0  0  0  0  0
  -33.7486   25.9270    7.2930 H   0  0  0  0  0  0  0  0  0  0  0  0
  -35.5010   24.8033    6.5548 H   0  0  0  0  0  0  0  0  0  0  0  0
  -34.4902   23.2878    6.4404 H   0  0  0  0  0  0  0  0  0  0  0  0
  -35.5201   24.0928    9.1300 H   0  0  0  0  0  0  0  0  0  0  0  0
  -36.6814   23.3964    7.9052 H   0  0  0  0  0  0  0  0  0  0  0  0
  -36.0563   21.4057    8.7148 H   0  0  0  0  0  0  0  0  0  0  0  0
  -34.5522   21.6733    7.7459 H   0  0  0  0  0  0  0  0  0  0  0  0
  -33.2865   21.8194    9.5908 H   0  0  0  0  0  0  0  0  0  0  0  0
  -34.4383   23.0123   10.3388 H   0  0  0  0  0  0  0  0  0  0  0  0
  -34.4688   21.2605   11.8579 H   0  0  0  0  0  0  0  0  0  0  0  0
  -35.9038   20.9247   10.7827 H   0  0  0  0  0  0  0  0  0  0  0  0
  1  2  1  0
  2  3  1  0
  3  4  1  0
  4  5  1  0
  5  6  1  0
  6  7  2  0
  7  8  1  0
  8  9  1  0
  9 10  2  0
 10 11  1  0
 11 12  1  0
 12 13  1  0
 13 14  1  0
 14 15  1  0
 15 16  1  0
 16 17  1  0
 17 18  1  0
 18 19  2  0
 18 20  1  0
  1 21  1  0
  1 22  1  0
  1 23  1  0
  2 24  1  0
  2 25  1  0
  3 26  1  0
  3 27  1  0
  4 28  1  0
  4 29  1  0
  5 30  1  0
  5 31  1  0
  6 32  1  0
  7 33  1  0
  8 34  1  0
  8 35  1  0
  9 36  1  0
 10 37  1  0
 11 38  1  0
 11 39  1  0
 12 40  1  0
 12 41  1  0
 13 42  1  0
 13 43  1  0
 14 44  1  0
 14 45  1  0
 15 46  1  0
 15 47  1  0
 16 48  1  0
 16 49  1  0
 17 50  1  0
 17 51  1  0
M  CHG  1  20  -1
M  END
>  <meeko>  (19) 
{"is_sidechain": [false], "free_energy": -5.927, "intermolecular_energy": -11.298, "internal_energy": -2.413}

$$$$
linoleate_Nlobe_run01
     RDKit          3D

 51 50  0  0  0  0  0  0  0  0999 V2000
  -40.4230   22.8500    8.2230 C   0  0  0  0  0  0  0  0  0  0  0  0
  -39.5880   22.0080    7.2710 C   0  0  0  0  0  0  0  0  0  0  0  0
  -39.6060   20.5140    7.6010 C   0  0  0  0  0  0  0  0  0  0  0  0
  -38.8320   19.6600    6.5920 C   0  0  0  0  0  0  0  0  0  0  0  0
  -38.5010   20.4640    5.3280 C   0  0  0  0  0  0  0  0  0  0  0  0
  -37.0720   20.4280    4.8560 C   0  0  0  0  0  0  0  0  0  0  0  0
  -36.0130   21.0290    5.4200 C   0  0  0  0  0  0  0  0  0  0  0  0
  -36.1000   21.8690    6.6620 C   0  0  0  0  0  0  0  0  0  0  0  0
  -35.7740   21.0710    7.8900 C   0  0  0  0  0  0  0  0  0  0  0  0
  -35.1070   21.5640    8.9440 C   0  0  0  0  0  0  0  0  0  0  0  0
  -34.6040   22.9770    9.0260 C   0  0  0  0  0  0  0  0  0  0  0  0
  -33.1440   23.0710    9.4840 C   0  0  0  0  0  0  0  0  0  0  0  0
  -32.1660   23.3570    8.3390 C   0  0  0  0  0  0  0  0  0  0  0  0
  -32.7770   23.1350    6.9510 C   0  0  0  0  0  0  0  0  0  0  0  0
  -31.9190   22.2470    6.0460 C   0  0  0  0  0  0  0  0  0  0  0  0
  -32.4500   20.8080    6.0200 C   0  0  0  0  0  0  0  0  0  0  0  0
  -32.0900   20.0310    7.2850 C   0  0  0  0  0  0  0  0  0  0  0  0
  -31.6950   18.6000    7.0100 C   0  0  0  0  0  0  0  0  0  0  0  0
  -31.1800   17.8300    7.8060 O   0  0  0  0  0  0  0  0  0  0  0  0
  -32.0230   18.2610    5.7370 O   0  0  0  0  0  0  0  0  0  0  0  0
  -40.1672   22.5920    9.2613 H   0  0  0  0  0  0  0  0  0  0  0  0
  -40.2152   23.9160    8.0482 H   0  0  0  0  0  0  0  0  0  0  0  0
  -41.4907   22.6511    8.0482 H   0  0  0  0  0  0  0  0  0  0  0  0
  -39.9788   22.1441    6.2518 H   0  0  0  0  0  0  0  0  0  0  0  0
  -38.5463   22.3479    7.3675 H   0  0  0  0  0  0  0  0  0  0  0  0
  -39.1581   20.3709    8.5954 H   0  0  0  0  0  0  0  0  0  0  0  0
  -40.6554   20.1861    7.5673 H   0  0  0  0  0  0  0  0  0  0  0  0
  -37.8952   19.3170    7.0553 H   0  0  0  0  0  0  0  0  0  0  0  0
  -39.4585   18.8021    6.3066 H   0  0  0  0  0  0  0  0  0  0  0  0
  -39.1306   20.0772    4.5131 H   0  0  0  0  0  0  0  0  0  0  0  0
  -38.6891   21.5139    5.5970 H   0  0  0  0  0  0  0  0  0  0  0  0
  -36.8734   19.8429    3.9459 H   0  0  0  0  0  0  0  0  0  0  0  0
  -35.0283   20.8995    4.9473 H   0  0  0  0  0  0  0  0  0  0  0  0
  -35.3887   22.7040    6.5792 H   0  0  0  0  0  0  0  0  0  0  0  0
  -37.1311   22.2404    6.7557 H   0  0  0  0  0  0  0  0  0  0  0  0
  -36.1008   20.0214    7.9281 H   0  0  0  0  0  0  0  0  0  0  0  0
  -34.9175   20.8956    9.7969 H   0  0  0  0  0  0  0  0  0  0  0  0
  -34.6887   23.4369    8.0303 H   0  0  0  0  0  0  0  0  0  0  0  0
  -35.2166   23.4998    9.7752 H   0  0  0  0  0  0  0  0  0  0  0  0
  -33.0617   23.8809   10.2238 H   0  0  0  0  0  0  0  0  0  0  0  0
  -32.8721   22.0930    9.9077 H   0  0  0  0  0  0  0  0  0  0  0  0
  -31.8384   24.4045    8.4129 H   0  0  0  0  0  0  0  0  0  0  0  0
  -31.3276   22.6525    8.4427 H   0  0  0  0  0  0  0  0  0  0  0  0
  -33.7612   22.6596    7.0749 H   0  0  0  0  0  0  0  0  0  0  0  0
  -32.8501   24.1197    6.4662 H   0  0  0  0  0  0  0  0  0  0  0  0
  -31.9344   22.6541    5.0242 H   0  0  0  0  0  0  0  0  0  0  0  0
  -30.8926   22.2335    6.4414 H   0  0  0  0  0  0  0  0  0  0  0  0
  -33.5453   20.8374    5.9233 H   0  0  0  0  0  0  0  0  0  0  0  0
  -31.9835   20.2939    5.1667 H   0  0  0  0  0  0  0  0  0  0  0  0
  -31.2479   20.5377    7.7791 H   0  0  0  0  0  0  0  0  0  0  0  0
  -32.9872   20.0067    7.9210 H   0  0  0  0  0  0  0  0  0  0  0  0
  1  2  1  0
  2  3  1  0
  3  4  1  0
  4  5  1  0
  5  6  1  0
  6  7  2  0
  7  8  1  0
  8  9  1  0
  9 10  2  0
 10 11  1  0
 11 12  1  0
 12 13  1  0
 13 14  1  0
 14 15  1  0
 15 16  1  0
 16 17  1  0
 17 18  1  0
 18 19  2  0
 18 20  1  0
  1 21  1  0
  1 22  1  0
  1 23  1  0
  2 24  1  0
  2 25  1  0
  3 26  1  0
  3 27  1  0
  4 28  1  0
  4 29  1  0
  5 30  1  0
  5 31  1  0
  6 32  1  0
  7 33  1  0
  8 34  1  0
  8 35  1  0
  9 36  1  0
 10 37  1  0
 11 38  1  0
 11 39  1  0
 12 40  1  0
 12 41  1  0
 13 42  1  0
 13 43  1  0
 14 44  1  0
 14 45  1  0
 15 46  1  0
 15 47  1  0
 16 48  1  0
 16 49  1  0
 17 50  1  0
 17 51  1  0
M  CHG  1  20  -1
M  END
>  <meeko>  (20) 
{"is_sidechain": [false], "free_energy": -5.91, "intermolecular_energy": -11.463, "internal_energy": -2.217}

$$$$
