palmitate_Nlobe_run03
     RDKit          3D

 49 48  0  0  0  0  0  0  0  0999 V2000
  -31.6900   24.6070    8.6790 C   0  0  0  0  0  0  0  0  0  0  0  0
  -32.2540   24.8100    7.2820 C   0  0  0  0  0  0  0  0  0  0  0  0
  -32.2650   23.5340    6.4340 C   0  0  0  0  0  0  0  0  0  0  0  0
  -31.7910   22.2950    7.1980 C   0  0  0  0  0  0  0  0  0  0  0  0
  -32.5560   21.0180    6.8300 C   0  0  0  0  0  0  0  0  0  0  0  0
  -31.8250   19.6980    7.0890 C   0  0  0  0  0  0  0  0  0  0  0  0
  -32.3370   18.9480    8.3210 C   0  0  0  0  0  0  0  0  0  0  0  0
  -33.8200   19.2360    8.5670 C   0  0  0  0  0  0  0  0  0  0  0  0
  -34.0790   19.5600   10.0410 C   0  0  0  0  0  0  0  0  0  0  0  0
  -34.9260   20.8180   10.2540 C   0  0  0  0  0  0  0  0  0  0  0  0
  -34.2600   22.1460    9.8770 C   0  0  0  0  0  0  0  0  0  0  0  0
  -35.0780   22.9840    8.8910 C   0  0  0  0  0  0  0  0  0  0  0  0
  -36.0770   22.1200    8.1210 C   0  0  0  0  0  0  0  0  0  0  0  0
  -35.8920   22.1690    6.5990 C   0  0  0  0  0  0  0  0  0  0  0  0
  -36.2530   20.8730    5.8730 C   0  0  0  0  0  0  0  0  0  0  0  0
  -35.8690   20.8480    4.4150 C   0  0  0  0  0  0  0  0  0  0  0  0
  -36.5250   20.2880    3.5460 O   0  0  0  0  0  0  0  0  0  0  0  0
  -34.6980   21.4840    4.1670 O   0  0  0  0  0  0  0  0  0  0  0  0
  -32.4507   24.8808    9.4249 H   0  0  0  0  0  0  0  0  0  0  0  0
  -31.4098   23.5516    8.8115 H   0  0  0  0  0  0  0  0  0  0  0  0
  -30.8014   25.2417    8.8115 H   0  0  0  0  0  0  0  0  0  0  0  0
  -33.2874   25.1755    7.3738 H   0  0  0  0  0  0  0  0  0  0  0  0
  -31.5992   25.5313    6.7712 H   0  0  0  0  0  0  0  0  0  0  0  0
  -33.2925   23.3564    6.0839 H   0  0  0  0  0  0  0  0  0  0  0  0
  -31.5643   23.6907    5.6006 H   0  0  0  0  0  0  0  0  0  0  0  0
  -30.7248   22.1374    6.9781 H   0  0  0  0  0  0  0  0  0  0  0  0
  -31.9739   22.4846    8.2660 H   0  0  0  0  0  0  0  0  0  0  0  0
  -33.4892   21.0055    7.4122 H   0  0  0  0  0  0  0  0  0  0  0  0
  -32.7045   21.0654    5.7411 H   0  0  0  0  0  0  0  0  0  0  0  0
  -31.9532   19.0505    6.2090 H   0  0  0  0  0  0  0  0  0  0  0  0
  -30.7693   19.9441    7.2757 H   0  0  0  0  0  0  0  0  0  0  0  0
  -32.2023   17.8675    8.1651 H   0  0  0  0  0  0  0  0  0  0  0  0
  -31.7660   19.2872    9.1978 H   0  0  0  0  0  0  0  0  0  0  0  0
  -34.1268   20.0940    7.9508 H   0  0  0  0  0  0  0  0  0  0  0  0
  -34.4001   18.3410    8.2977 H   0  0  0  0  0  0  0  0  0  0  0  0
  -34.6027   18.7071   10.4974 H   0  0  0  0  0  0  0  0  0  0  0  0
  -33.1001   19.7484   10.5061 H   0  0  0  0  0  0  0  0  0  0  0  0
  -35.8393   20.7156    9.6495 H   0  0  0  0  0  0  0  0  0  0  0  0
  -35.1084   20.8738   11.3373 H   0  0  0  0  0  0  0  0  0  0  0  0
  -34.1131   22.7342   10.7949 H   0  0  0  0  0  0  0  0  0  0  0  0
  -33.3096   21.9006    9.3806 H   0  0  0  0  0  0  0  0  0  0  0  0
  -35.6278   23.7569    9.4481 H   0  0  0  0  0  0  0  0  0  0  0  0
  -34.3866   23.4419    8.1684 H   0  0  0  0  0  0  0  0  0  0  0  0
  -35.9608   21.0772    8.4513 H   0  0  0  0  0  0  0  0  0  0  0  0
  -37.0791   22.5198    8.3355 H   0  0  0  0  0  0  0  0  0  0  0  0
  -36.5280   22.9737    6.2016 H   0  0  0  0  0  0  0  0  0  0  0  0
  -34.8200   22.3389    6.4201 H   0  0  0  0  0  0  0  0  0  0  0  0
  -35.7401   20.0413    6.3782 H   0  0  0  0  0  0  0  0  0  0  0  0
  -37.3490   20.7870    5.9105 H   0  0  0  0  0  0  0  0  0  0  0  0
  1  2  1  0
  2  3  1  0
  3  4  1  0
  4  5  1  0
  5  6  1  0
  6  7  1  0
  7  8  1  0
  8  9  1  0
  9 10  1  0
 10 11  1  0
 11 12  1  0
 12 13  1  0
 13 14  1  0
 14 15  1  0
 15 16  1  0
 16 17  2  0
 16 18  1  0
  1 19  1  0
  1 20  1  0
  1 21  1  0
  2 22  1  0
  2 23  1  0
  3 24  1  0
  3 25  1  0
  4 26  1  0
  4 27  1  0
  5 28  1  0
  5 29  1  0
  6 30  1  0
  6 31  1  0
  7 32  1  0
  7 33  1  0
  8 34  1  0
  8 35  1  0
  9 36  1  0
  9 37  1  0
 10 38  1  0
 10 39  1  0
 11 40  1  0
 11 41  1  0
 12 42  1  0
 12 43  1  0
 13 44  1  0
 13 45  1  0
 14 46  1  0
 14 47  1  0
 15 48  1  0
 15 49  1  0
M  CHG  1  18  -1
M  END
>  <meeko>  (1) 
{"is_sidechain": [false], "free_energy": -5.892, "intermolecular_energy": -10.715, "internal_energy": -2.446}

$$$$
palmitate_Nlobe_run03
     RDKit          3D

 49 48  0  0  0  0  0  0  0  0999 V2000
  -32.5980   25.3160    7.0600 C   0  0  0  0  0  0  0  0  0  0  0  0
  -32.4210   23.9000    6.5370 C   0  0  0  0  0  0  0  0  0  0  0  0
  -31.9240   22.9120    7.5970 C   0  0  0  0  0  0  0  0  0  0  0  0
  -32.6250   23.0710    8.9490 C   0  0  0  0  0  0  0  0  0  0  0  0
  -33.9110   22.2440    9.0730 C   0  0  0  0  0  0  0  0  0  0  0  0
  -35.2220   23.0360    9.0590 C   0  0  0  0  0  0  0  0  0  0  0  0
  -35.8220   23.1990    7.6620 C   0  0  0  0  0  0  0  0  0  0  0  0
  -37.0380   22.2890    7.4710 C   0  0  0  0  0  0  0  0  0  0  0  0
  -36.6280   20.9450    6.8640 C   0  0  0  0  0  0  0  0  0  0  0  0
  -37.0180   20.7920    5.3910 C   0  0  0  0  0  0  0  0  0  0  0  0
  -35.8630   20.8450    4.3840 C   0  0  0  0  0  0  0  0  0  0  0  0
  -34.4960   21.0770    5.0320 C   0  0  0  0  0  0  0  0  0  0  0  0
  -33.3720   20.4570    4.2000 C   0  0  0  0  0  0  0  0  0  0  0  0
  -32.5420   19.4170    4.9620 C   0  0  0  0  0  0  0  0  0  0  0  0
  -32.7340   19.4380    6.4780 C   0  0  0  0  0  0  0  0  0  0  0  0
  -31.8140   18.5140    7.2360 C   0  0  0  0  0  0  0  0  0  0  0  0
  -31.7640   18.4510    8.4580 O   0  0  0  0  0  0  0  0  0  0  0  0
  -31.0170   17.7790    6.4220 O   0  0  0  0  0  0  0  0  0  0  0  0
  -32.5964   25.3035    8.1599 H   0  0  0  0  0  0  0  0  0  0  0  0
  -31.7716   25.9461    6.6993 H   0  0  0  0  0  0  0  0  0  0  0  0
  -33.5540   25.7233    6.6993 H   0  0  0  0  0  0  0  0  0  0  0  0
  -33.3911   23.5453    6.1587 H   0  0  0  0  0  0  0  0  0  0  0  0
  -31.6542   23.9407    5.7494 H   0  0  0  0  0  0  0  0  0  0  0  0
  -32.0993   21.8896    7.2309 H   0  0  0  0  0  0  0  0  0  0  0  0
  -30.8553   23.1170    7.7579 H   0  0  0  0  0  0  0  0  0  0  0  0
  -31.9300   22.7546    9.7408 H   0  0  0  0  0  0  0  0  0  0  0  0
  -32.9107   24.1291    9.0426 H   0  0  0  0  0  0  0  0  0  0  0  0
  -33.9373   21.5345    8.2328 H   0  0  0  0  0  0  0  0  0  0  0  0
  -33.8629   21.7672   10.0631 H   0  0  0  0  0  0  0  0  0  0  0  0
  -35.9524   22.5113    9.6924 H   0  0  0  0  0  0  0  0  0  0  0  0
  -34.9940   24.0452    9.4327 H   0  0  0  0  0  0  0  0  0  0  0  0
  -36.1321   24.2454    7.5248 H   0  0  0  0  0  0  0  0  0  0  0  0
  -35.0587   22.9197    6.9208 H   0  0  0  0  0  0  0  0  0  0  0  0
  -37.5122   22.1128    8.4477 H   0  0  0  0  0  0  0  0  0  0  0  0
  -37.7411   22.7834    6.7846 H   0  0  0  0  0  0  0  0  0  0  0  0
  -35.5357   20.8451    6.9465 H   0  0  0  0  0  0  0  0  0  0  0  0
  -37.1635   20.1627    7.4220 H   0  0  0  0  0  0  0  0  0  0  0  0
  -37.5223   19.8213    5.2748 H   0  0  0  0  0  0  0  0  0  0  0  0
  -37.6548   21.6587    5.1599 H   0  0  0  0  0  0  0  0  0  0  0  0
  -35.8322   19.8898    3.8394 H   0  0  0  0  0  0  0  0  0  0  0  0
  -36.0540   21.6997    3.7184 H   0  0  0  0  0  0  0  0  0  0  0  0
  -34.3208   22.1594    5.1203 H   0  0  0  0  0  0  0  0  0  0  0  0
  -34.4970   20.5998    6.0231 H   0  0  0  0  0  0  0  0  0  0  0  0
  -33.8191   19.9685    3.3217 H   0  0  0  0  0  0  0  0  0  0  0  0
  -32.6887   21.2736    3.9240 H   0  0  0  0  0  0  0  0  0  0  0  0
  -32.8213   18.4186    4.5944 H   0  0  0  0  0  0  0  0  0  0  0  0
  -31.4861   19.6643    4.7776 H   0  0  0  0  0  0  0  0  0  0  0  0
  -32.5591   20.4645    6.8326 H   0  0  0  0  0  0  0  0  0  0  0  0
  -33.7587   19.0866    6.6693 H   0  0  0  0  0  0  0  0  0  0  0  0
  1  2  1  0
  2  3  1  0
  3  4  1  0
  4  5  1  0
  5  6  1  0
  6  7  1  0
  7  8  1  0
  8  9  1  0
  9 10  1  0
 10 11  1  0
 11 12  1  0
 12 13  1  0
 13 14  1  0
 14 15  1  0
 15 16  1  0
 16 17  2  0
 16 18  1  0
  1 19  1  0
  1 20  1  0
  1 21  1  0
  2 22  1  0
  2 23  1  0
  3 24  1  0
  3 25  1  0
  4 26  1  0
  4 27  1  0
  5 28  1  0
  5 29  1  0
  6 30  1  0
  6 31  1  0
  7 32  1  0
  7 33  1  0
  8 34  1  0
  8 35  1  0
  9 36  1  0
  9 37  1  0
 10 38  1  0
 10 39  1  0
 11 40  1  0
 11 41  1  0
 12 42  1  0
 12 43  1  0
 13 44  1  0
 13 45  1  0
 14 46  1  0
 14 47  1  0
 15 48  1  0
 15 49  1  0
M  CHG  1  18  -1
M  END
>  <meeko>  (2) 
{"is_sidechain": [false], "free_energy": -5.79, "intermolecular_energy": -11.044, "internal_energy": -1.932}

$$$$
palmitate_Nlobe_run03
     RDKit          3D

 49 48  0  0  0  0  0  0  0  0999 V2000
  -33.8800   22.2150   11.2440 C   0  0  0  0  0  0  0  0  0  0  0  0
  -34.6600   22.8090   10.0820 C   0  0  0  0  0  0  0  0  0  0  0  0
  -35.1350   21.7660    9.0660 C   0  0  0  0  0  0  0  0  0  0  0  0
  -35.8160   22.3820    7.8400 C   0  0  0  0  0  0  0  0  0  0  0  0
  -35.4250   23.8450    7.5930 C   0  0  0  0  0  0  0  0  0  0  0  0
  -34.2790   24.0760    6.6040 C   0  0  0  0  0  0  0  0  0  0  0  0
  -33.1800   24.9910    7.1470 C   0  0  0  0  0  0  0  0  0  0  0  0
  -32.0430   24.1790    7.7730 C   0  0  0  0  0  0  0  0  0  0  0  0
  -31.9000   22.8170    7.0910 C   0  0  0  0  0  0  0  0  0  0  0  0
  -31.7750   21.6480    8.0730 C   0  0  0  0  0  0  0  0  0  0  0  0
  -31.0920   20.3880    7.5300 C   0  0  0  0  0  0  0  0  0  0  0  0
  -31.8540   19.0960    7.8390 C   0  0  0  0  0  0  0  0  0  0  0  0
  -32.3750   18.4370    6.5610 C   0  0  0  0  0  0  0  0  0  0  0  0
  -32.7000   19.4330    5.4410 C   0  0  0  0  0  0  0  0  0  0  0  0
  -34.1120   20.0150    5.5000 C   0  0  0  0  0  0  0  0  0  0  0  0
  -34.4450   20.9590    4.3710 C   0  0  0  0  0  0  0  0  0  0  0  0
  -35.4710   21.6250    4.3180 O   0  0  0  0  0  0  0  0  0  0  0  0
  -33.5010   20.9700    3.3980 O   0  0  0  0  0  0  0  0  0  0  0  0
  -34.3225   22.5520   12.1930 H   0  0  0  0  0  0  0  0  0  0  0  0
  -33.9207   21.1171   11.1899 H   0  0  0  0  0  0  0  0  0  0  0  0
  -32.8324   22.5462   11.1899 H   0  0  0  0  0  0  0  0  0  0  0  0
  -35.5417   23.3291   10.4846 H   0  0  0  0  0  0  0  0  0  0  0  0
  -33.9790   23.4902    9.5508 H   0  0  0  0  0  0  0  0  0  0  0  0
  -34.2637   21.1863    8.7272 H   0  0  0  0  0  0  0  0  0  0  0  0
  -35.8812   21.1350    9.5710 H   0  0  0  0  0  0  0  0  0  0  0  0
  -35.5371   21.7927    6.9540 H   0  0  0  0  0  0  0  0  0  0  0  0
  -36.8995   22.3642    8.0288 H   0  0  0  0  0  0  0  0  0  0  0  0
  -36.3120   24.3701    7.2089 H   0  0  0  0  0  0  0  0  0  0  0  0
  -35.0622   24.2223    8.5605 H   0  0  0  0  0  0  0  0  0  0  0  0
  -33.8309   23.1023    6.3567 H   0  0  0  0  0  0  0  0  0  0  0  0
  -34.7081   24.5737    5.7219 H   0  0  0  0  0  0  0  0  0  0  0  0
  -32.7766   25.5962    6.3217 H   0  0  0  0  0  0  0  0  0  0  0  0
  -33.6161   25.6362    7.9239 H   0  0  0  0  0  0  0  0  0  0  0  0
  -31.1009   24.7363    7.6639 H   0  0  0  0  0  0  0  0  0  0  0  0
  -32.2740   24.0155    8.8360 H   0  0  0  0  0  0  0  0  0  0  0  0
  -32.7863   22.6488    6.4615 H   0  0  0  0  0  0  0  0  0  0  0  0
  -30.9694   22.8464    6.5052 H   0  0  0  0  0  0  0  0  0  0  0  0
  -31.1967   21.9974    8.9411 H   0  0  0  0  0  0  0  0  0  0  0  0
  -32.8061   21.3483    8.3120 H   0  0  0  0  0  0  0  0  0  0  0  0
  -31.0005   20.4851    6.4381 H   0  0  0  0  0  0  0  0  0  0  0  0
  -30.1135   20.3120    8.0267 H   0  0  0  0  0  0  0  0  0  0  0  0
  -31.1786   18.3962    8.3530 H   0  0  0  0  0  0  0  0  0  0  0  0
  -32.7153   19.3456    8.4760 H   0  0  0  0  0  0  0  0  0  0  0  0
  -31.6086   17.7390    6.1931 H   0  0  0  0  0  0  0  0  0  0  0  0
  -33.3153   17.9293    6.8219 H   0  0  0  0  0  0  0  0  0  0  0  0
  -31.9828   20.2648    5.5022 H   0  0  0  0  0  0  0  0  0  0  0  0
  -32.6313   18.8742    4.4960 H   0  0  0  0  0  0  0  0  0  0  0  0
  -34.8291   19.1813    5.4741 H   0  0  0  0  0  0  0  0  0  0  0  0
  -34.1707   20.6026    6.4280 H   0  0  0  0  0  0  0  0  0  0  0  0
  1  2  1  0
  2  3  1  0
  3  4  1  0
  4  5  1  0
  5  6  1  0
  6  7  1  0
  7  8  1  0
  8  9  1  0
  9 10  1  0
 10 11  1  0
 11 12  1  0
 12 13  1  0
 13 14  1  0
 14 15  1  0
 15 16  1  0
 16 17  2  0
 16 18  1  0
  1 19  1  0
  1 20  1  0
  1 21  1  0
  2 22  1  0
  2 23  1  0
  3 24  1  0
  3 25  1  0
  4 26  1  0
  4 27  1  0
  5 28  1  0
  5 29  1  0
  6 30  1  0
  6 31  1  0
  7 32  1  0
  7 33  1  0
  8 34  1  0
  8 35  1  0
  9 36  1  0
  9 37  1  0
 10 38  1  0
 10 39  1  0
 11 40  1  0
 11 41  1  0
 12 42  1  0
 12 43  1  0
 13 44  1  0
 13 45  1  0
 14 46  1  0
 14 47  1  0
 15 48  1  0
 15 49  1  0
M  CHG  1  18  -1
M  END
>  <meeko>  (3) 
{"is_sidechain": [false], "free_energy": -5.75, "intermolecular_energy": -10.681, "internal_energy": -2.222}

$$$$
palmitate_Nlobe_run03
     RDKit          3D

 49 48  0  0  0  0  0  0  0  0999 V2000
  -31.8000   24.5810    8.7620 C   0  0  0  0  0  0  0  0  0  0  0  0
  -32.6420   25.3670    7.7700 C   0  0  0  0  0  0  0  0  0  0  0  0
  -33.4310   24.4840    6.7990 C   0  0  0  0  0  0  0  0  0  0  0  0
  -34.9210   24.3870    7.1440 C   0  0  0  0  0  0  0  0  0  0  0  0
  -35.4900   22.9700    7.0020 C   0  0  0  0  0  0  0  0  0  0  0  0
  -35.7630   22.2220    8.3100 C   0  0  0  0  0  0  0  0  0  0  0  0
  -35.0480   22.8280    9.5200 C   0  0  0  0  0  0  0  0  0  0  0  0
  -34.1040   21.8130   10.1700 C   0  0  0  0  0  0  0  0  0  0  0  0
  -34.7560   20.4320   10.2570 C   0  0  0  0  0  0  0  0  0  0  0  0
  -33.9300   19.3200    9.6030 C   0  0  0  0  0  0  0  0  0  0  0  0
  -34.1080   19.1560    8.0890 C   0  0  0  0  0  0  0  0  0  0  0  0
  -32.9930   18.3420    7.4260 C   0  0  0  0  0  0  0  0  0  0  0  0
  -32.1500   19.2110    6.4920 C   0  0  0  0  0  0  0  0  0  0  0  0
  -32.4130   20.7150    6.6410 C   0  0  0  0  0  0  0  0  0  0  0  0
  -32.6080   21.4590    5.3200 C   0  0  0  0  0  0  0  0  0  0  0  0
  -33.5760   20.7980    4.3700 C   0  0  0  0  0  0  0  0  0  0  0  0
  -34.7110   20.4590    4.6780 O   0  0  0  0  0  0  0  0  0  0  0  0
  -33.0450   20.5860    3.1410 O   0  0  0  0  0  0  0  0  0  0  0  0
  -32.0916   24.8532    9.7871 H   0  0  0  0  0  0  0  0  0  0  0  0
  -31.9624   23.5040    8.6084 H   0  0  0  0  0  0  0  0  0  0  0  0
  -30.7367   24.8170    8.6084 H   0  0  0  0  0  0  0  0  0  0  0  0
  -33.3548   25.9869    8.3336 H   0  0  0  0  0  0  0  0  0  0  0  0
  -31.9485   25.9703    7.1658 H   0  0  0  0  0  0  0  0  0  0  0  0
  -33.3333   24.9037    5.7869 H   0  0  0  0  0  0  0  0  0  0  0  0
  -33.0132   23.4688    6.8681 H   0  0  0  0  0  0  0  0  0  0  0  0
  -35.0597   24.7154    8.1846 H   0  0  0  0  0  0  0  0  0  0  0  0
  -35.4611   25.0260    6.4298 H   0  0  0  0  0  0  0  0  0  0  0  0
  -36.4394   23.0422    6.4512 H   0  0  0  0  0  0  0  0  0  0  0  0
  -34.7125   22.3887    6.4847 H   0  0  0  0  0  0  0  0  0  0  0  0
  -36.8461   22.2387    8.5012 H   0  0  0  0  0  0  0  0  0  0  0  0
  -35.3774   21.1994    8.1847 H   0  0  0  0  0  0  0  0  0  0  0  0
  -34.4652   23.7015    9.1922 H   0  0  0  0  0  0  0  0  0  0  0  0
  -35.8057   23.1235   10.2607 H   0  0  0  0  0  0  0  0  0  0  0  0
  -33.1860   21.7397    9.5685 H   0  0  0  0  0  0  0  0  0  0  0  0
  -33.8718   22.1547   11.1895 H   0  0  0  0  0  0  0  0  0  0  0  0
  -34.8979   20.1810   11.3185 H   0  0  0  0  0  0  0  0  0  0  0  0
  -35.7081   20.4904    9.7092 H   0  0  0  0  0  0  0  0  0  0  0  0
  -32.8679   19.5307    9.7966 H   0  0  0  0  0  0  0  0  0  0  0  0
  -34.2895   18.3807   10.0485 H   0  0  0  0  0  0  0  0  0  0  0  0
  -35.0662   18.6484    7.9043 H   0  0  0  0  0  0  0  0  0  0  0  0
  -34.0773   20.1638    7.6492 H   0  0  0  0  0  0  0  0  0  0  0  0
  -32.3432   17.9215    8.2076 H   0  0  0  0  0  0  0  0  0  0  0  0
  -33.4553   17.5406    6.8310 H   0  0  0  0  0  0  0  0  0  0  0  0
  -31.0879   19.0217    6.7066 H   0  0  0  0  0  0  0  0  0  0  0  0
  -32.4267   18.9376    5.4631 H   0  0  0  0  0  0  0  0  0  0  0  0
  -33.3219   20.8464    7.2466 H   0  0  0  0  0  0  0  0  0  0  0  0
  -31.5162   21.1440    7.1119 H   0  0  0  0  0  0  0  0  0  0  0  0
  -32.9823   22.4685    5.5456 H   0  0  0  0  0  0  0  0  0  0  0  0
  -31.6299   21.4672    4.8167 H   0  0  0  0  0  0  0  0  0  0  0  0
  1  2  1  0
  2  3  1  0
  3  4  1  0
  4  5  1  0
  5  6  1  0
  6  7  1  0
  7  8  1  0
  8  9  1  0
  9 10  1  0
 10 11  1  0
 11 12  1  0
 12 13  1  0
 13 14  1  0
 14 15  1  0
 15 16  1  0
 16 17  2  0
 16 18  1  0
  1 19  1  0
  1 20  1  0
  1 21  1  0
  2 22  1  0
  2 23  1  0
  3 24  1  0
  3 25  1  0
  4 26  1  0
  4 27  1  0
  5 28  1  0
  5 29  1  0
  6 30  1  0
  6 31  1  0
  7 32  1  0
  7 33  1  0
  8 34  1  0
  8 35  1  0
  9 36  1  0
  9 37  1  0
 10 38  1  0
 10 39  1  0
 11 40  1  0
 11 41  1  0
 12 42  1  0
 12 43  1  0
 13 44  1  0
 13 45  1  0
 14 46  1  0
 14 47  1  0
 15 48  1  0
 15 49  1  0
M  CHG  1  18  -1
M  END
>  <meeko>  (4) 
{"is_sidechain": [false], "free_energy": -5.636, "intermolecular_energy": -10.68, "internal_energy": -2.015}

$$$$
palmitate_Nlobe_run03
     RDKit          3D

 49 48  0  0  0  0  0  0  0  0999 V2000
  -31.8280   24.8250    8.6840 C   0  0  0  0  0  0  0  0  0  0  0  0
  -32.4940   25.0600    7.3380 C   0  0  0  0  0  0  0  0  0  0  0  0
  -33.4940   23.9670    6.9490 C   0  0  0  0  0  0  0  0  0  0  0  0
  -34.8800   24.1670    7.5710 C   0  0  0  0  0  0  0  0  0  0  0  0
  -35.2200   23.1340    8.6520 C   0  0  0  0  0  0  0  0  0  0  0  0
  -34.1710   22.0430    8.8920 C   0  0  0  0  0  0  0  0  0  0  0  0
  -34.7720   20.6500    9.0840 C   0  0  0  0  0  0  0  0  0  0  0  0
  -34.0460   19.6110    8.2260 C   0  0  0  0  0  0  0  0  0  0  0  0
  -33.2470   20.2830    7.1070 C   0  0  0  0  0  0  0  0  0  0  0  0
  -33.4920   19.6720    5.7240 C   0  0  0  0  0  0  0  0  0  0  0  0
  -33.9120   20.6530    4.6240 C   0  0  0  0  0  0  0  0  0  0  0  0
  -35.0770   21.5620    5.0250 C   0  0  0  0  0  0  0  0  0  0  0  0
  -36.3730   20.7650    5.1920 C   0  0  0  0  0  0  0  0  0  0  0  0
  -37.2160   21.2040    6.3950 C   0  0  0  0  0  0  0  0  0  0  0  0
  -38.2200   20.1580    6.8800 C   0  0  0  0  0  0  0  0  0  0  0  0
  -39.5500   20.7250    7.3130 C   0  0  0  0  0  0  0  0  0  0  0  0
  -40.3680   20.1100    7.9840 O   0  0  0  0  0  0  0  0  0  0  0  0
  -39.7620   21.9810    6.8520 O   0  0  0  0  0  0  0  0  0  0  0  0
  -32.5334   25.0739    9.4905 H   0  0  0  0  0  0  0  0  0  0  0  0
  -31.5332   23.7686    8.7678 H   0  0  0  0  0  0  0  0  0  0  0  0
  -30.9355   25.4625    8.7678 H   0  0  0  0  0  0  0  0  0  0  0  0
  -33.0274   26.0213    7.3771 H   0  0  0  0  0  0  0  0  0  0  0  0
  -31.6979   25.0536    6.5789 H   0  0  0  0  0  0  0  0  0  0  0  0
  -33.5995   23.9635    5.8541 H   0  0  0  0  0  0  0  0  0  0  0  0
  -33.0998   23.0132    7.3295 H   0  0  0  0  0  0  0  0  0  0  0  0
  -34.9175   25.1692    8.0230 H   0  0  0  0  0  0  0  0  0  0  0  0
  -35.6175   24.0455    6.7639 H   0  0  0  0  0  0  0  0  0  0  0  0
  -35.3669   23.6738    9.5991 H   0  0  0  0  0  0  0  0  0  0  0  0
  -36.1162   22.6092    8.2894 H   0  0  0  0  0  0  0  0  0  0  0  0
  -33.4945   22.0138    8.0251 H   0  0  0  0  0  0  0  0  0  0  0  0
  -33.6450   22.2994    9.8234 H   0  0  0  0  0  0  0  0  0  0  0  0
  -34.6855   20.3647   10.1428 H   0  0  0  0  0  0  0  0  0  0  0  0
  -35.8274   20.6804    8.7756 H   0  0  0  0  0  0  0  0  0  0  0  0
  -33.3582   19.0359    8.8633 H   0  0  0  0  0  0  0  0  0  0  0  0
  -34.7961   18.9478    7.7705 H   0  0  0  0  0  0  0  0  0  0  0  0
  -33.5259   21.3465    7.0713 H   0  0  0  0  0  0  0  0  0  0  0  0
  -32.1819   20.1364    7.3394 H   0  0  0  0  0  0  0  0  0  0  0  0
  -32.5609   19.1828    5.4019 H   0  0  0  0  0  0  0  0  0  0  0  0
  -34.3406   18.9833    5.8488 H   0  0  0  0  0  0  0  0  0  0  0  0
  -33.0476   21.2856    4.3737 H   0  0  0  0  0  0  0  0  0  0  0  0
  -34.2522   20.0514    3.7682 H   0  0  0  0  0  0  0  0  0  0  0  0
  -34.8347   22.0556    5.9777 H   0  0  0  0  0  0  0  0  0  0  0  0
  -35.2271   22.3055    4.2283 H   0  0  0  0  0  0  0  0  0  0  0  0
  -36.9769   20.8892    4.2810 H   0  0  0  0  0  0  0  0  0  0  0  0
  -36.0860   19.7174    5.3658 H   0  0  0  0  0  0  0  0  0  0  0  0
  -36.5340   21.4371    7.2260 H   0  0  0  0  0  0  0  0  0  0  0  0
  -37.8039   22.0732    6.0650 H   0  0  0  0  0  0  0  0  0  0  0  0
  -38.3995   19.4471    6.0600 H   0  0  0  0  0  0  0  0  0  0  0  0
  -37.7761   19.6845    7.7682 H   0  0  0  0  0  0  0  0  0  0  0  0
  1  2  1  0
  2  3  1  0
  3  4  1  0
  4  5  1  0
  5  6  1  0
  6  7  1  0
  7  8  1  0
  8  9  1  0
  9 10  1  0
 10 11  1  0
 11 12  1  0
 12 13  1  0
 13 14  1  0
 14 15  1  0
 15 16  1  0
 16 17  2  0
 16 18  1  0
  1 19  1  0
  1 20  1  0
  1 21  1  0
  2 22  1  0
  2 23  1  0
  3 24  1  0
  3 25  1  0
  4 26  1  0
  4 27  1  0
  5 28  1  0
  5 29  1  0
  6 30  1  0
  6 31  1  0
  7 32  1  0
  7 33  1  0
  8 34  1  0
  8 35  1  0
  9 36  1  0
  9 37  1  0
 10 38  1  0
 10 39  1  0
 11 40  1  0
 11 41  1  0
 12 42  1  0
 12 43  1  0
 13 44  1  0
 13 45  1  0
 14 46  1  0
 14 47  1  0
 15 48  1  0
 15 49  1  0
M  CHG  1  18  -1
M  END
>  <meeko>  (5) 
{"is_sidechain": [false], "free_energy": -5.626, "intermolecular_energy": -10.397, "internal_energy": -2.281}

$$$$
palmitate_Nlobe_run03
     RDKit          3D

 49 48  0  0  0  0  0  0  0  0999 V2000
  -33.9840   22.6630   10.7260 C   0  0  0  0  0  0  0  0  0  0  0  0
  -34.7680   21.5570   10.0390 C   0  0  0  0  0  0  0  0  0  0  0  0
  -35.1900   21.9010    8.6070 C   0  0  0  0  0  0  0  0  0  0  0  0
  -35.3800   23.4030    8.3770 C   0  0  0  0  0  0  0  0  0  0  0  0
  -34.5650   23.9500    7.1990 C   0  0  0  0  0  0  0  0  0  0  0  0
  -33.3130   24.7530    7.5650 C   0  0  0  0  0  0  0  0  0  0  0  0
  -32.0700   23.8850    7.7730 C   0  0  0  0  0  0  0  0  0  0  0  0
  -31.9070   22.8710    6.6380 C   0  0  0  0  0  0  0  0  0  0  0  0
  -31.9150   21.4380    7.1770 C   0  0  0  0  0  0  0  0  0  0  0  0
  -32.7430   20.4670    6.3290 C   0  0  0  0  0  0  0  0  0  0  0  0
  -32.8650   20.8150    4.8410 C   0  0  0  0  0  0  0  0  0  0  0  0
  -34.2470   20.5130    4.2540 C   0  0  0  0  0  0  0  0  0  0  0  0
  -35.3470   21.2710    4.9980 C   0  0  0  0  0  0  0  0  0  0  0  0
  -36.7500   20.6920    4.7830 C   0  0  0  0  0  0  0  0  0  0  0  0
  -37.5660   20.5140    6.0630 C   0  0  0  0  0  0  0  0  0  0  0  0
  -39.0360   20.8230    5.9140 C   0  0  0  0  0  0  0  0  0  0  0  0
  -39.6410   21.6200    6.6180 O   0  0  0  0  0  0  0  0  0  0  0  0
  -39.6290   20.0960    4.9350 O   0  0  0  0  0  0  0  0  0  0  0  0
  -34.0660   22.5474   11.8168 H   0  0  0  0  0  0  0  0  0  0  0  0
  -32.9266   22.6017   10.4292 H   0  0  0  0  0  0  0  0  0  0  0  0
  -34.3920   23.6405   10.4292 H   0  0  0  0  0  0  0  0  0  0  0  0
  -34.1410   20.6537   10.0090 H   0  0  0  0  0  0  0  0  0  0  0  0
  -35.6904   21.4078   10.6195 H   0  0  0  0  0  0  0  0  0  0  0  0
  -34.4141   21.5373    7.9172 H   0  0  0  0  0  0  0  0  0  0  0  0
  -36.1620   21.4180    8.4283 H   0  0  0  0  0  0  0  0  0  0  0  0
  -36.4456   23.5930    8.1810 H   0  0  0  0  0  0  0  0  0  0  0  0
  -35.0239   23.9162    9.2824 H   0  0  0  0  0  0  0  0  0  0  0  0
  -34.2487   23.0955    6.5828 H   0  0  0  0  0  0  0  0  0  0  0  0
  -35.2299   24.6566    6.6807 H   0  0  0  0  0  0  0  0  0  0  0  0
  -33.1075   25.4666    6.7535 H   0  0  0  0  0  0  0  0  0  0  0  0
  -33.5196   25.2564    8.5210 H   0  0  0  0  0  0  0  0  0  0  0  0
  -31.1815   24.5326    7.8060 H   0  0  0  0  0  0  0  0  0  0  0  0
  -32.1838   23.3344    8.7185 H   0  0  0  0  0  0  0  0  0  0  0  0
  -32.7364   22.9920    5.9257 H   0  0  0  0  0  0  0  0  0  0  0  0
  -30.9426   23.0531    6.1412 H   0  0  0  0  0  0  0  0  0  0  0  0
  -30.8778   21.0732    7.2098 H   0  0  0  0  0  0  0  0  0  0  0  0
  -32.3791   21.4714    8.1737 H   0  0  0  0  0  0  0  0  0  0  0  0
  -32.2792   19.4725    6.4057 H   0  0  0  0  0  0  0  0  0  0  0  0
  -33.7655   20.5172    6.7315 H   0  0  0  0  0  0  0  0  0  0  0  0
  -32.6611   21.8888    4.7167 H   0  0  0  0  0  0  0  0  0  0  0  0
  -32.1403   20.1874    4.3016 H   0  0  0  0  0  0  0  0  0  0  0  0
  -34.2594   20.8121    3.1955 H   0  0  0  0  0  0  0  0  0  0  0  0
  -34.4389   19.4348    4.3573 H   0  0  0  0  0  0  0  0  0  0  0  0
  -35.1211   21.2426    6.0742 H   0  0  0  0  0  0  0  0  0  0  0  0
  -35.3579   22.2955    4.5975 H   0  0  0  0  0  0  0  0  0  0  0  0
  -37.3024   21.3692    4.1150 H   0  0  0  0  0  0  0  0  0  0  0  0
  -36.6115   19.6868    4.3583 H   0  0  0  0  0  0  0  0  0  0  0  0
  -37.4658   19.4692    6.3923 H   0  0  0  0  0  0  0  0  0  0  0  0
  -37.1665   21.2340    6.7924 H   0  0  0  0  0  0  0  0  0  0  0  0
  1  2  1  0
  2  3  1  0
  3  4  1  0
  4  5  1  0
  5  6  1  0
  6  7  1  0
  7  8  1  0
  8  9  1  0
  9 10  1  0
 10 11  1  0
 11 12  1  0
 12 13  1  0
 13 14  1  0
 14 15  1  0
 15 16  1  0
 16 17  2  0
 16 18  1  0
  1 19  1  0
  1 20  1  0
  1 21  1  0
  2 22  1  0
  2 23  1  0
  3 24  1  0
  3 25  1  0
  4 26  1  0
  4 27  1  0
  5 28  1  0
  5 29  1  0
  6 30  1  0
  6 31  1  0
  7 32  1  0
  7 33  1  0
  8 34  1  0
  8 35  1  0
  9 36  1  0
  9 37  1  0
 10 38  1  0
 10 39  1  0
 11 40  1  0
 11 41  1  0
 12 42  1  0
 12 43  1  0
 13 44  1  0
 13 45  1  0
 14 46  1  0
 14 47  1  0
 15 48  1  0
 15 49  1  0
M  CHG  1  18  -1
M  END
>  <meeko>  (6) 
{"is_sidechain": [false], "free_energy": -5.624, "intermolecular_energy": -10.465, "internal_energy": -2.209}

$$$$
palmitate_Nlobe_run03
     RDKit          3D

 49 48  0  0  0  0  0  0  0  0999 V2000
  -39.4030   20.3690    7.5380 C   0  0  0  0  0  0  0  0  0  0  0  0
  -38.7710   19.7750    6.2900 C   0  0  0  0  0  0  0  0  0  0  0  0
  -37.8550   20.7490    5.5430 C   0  0  0  0  0  0  0  0  0  0  0  0
  -36.4120   20.7370    6.0570 C   0  0  0  0  0  0  0  0  0  0  0  0
  -36.0290   22.0030    6.8340 C   0  0  0  0  0  0  0  0  0  0  0  0
  -35.5110   21.7850    8.2580 C   0  0  0  0  0  0  0  0  0  0  0  0
  -35.0070   23.0650    8.9270 C   0  0  0  0  0  0  0  0  0  0  0  0
  -33.7510   22.7980    9.7600 C   0  0  0  0  0  0  0  0  0  0  0  0
  -32.5020   23.3380    9.0590 C   0  0  0  0  0  0  0  0  0  0  0  0
  -32.8110   24.2980    7.9060 C   0  0  0  0  0  0  0  0  0  0  0  0
  -32.3380   23.8510    6.5180 C   0  0  0  0  0  0  0  0  0  0  0  0
  -31.9660   22.3680    6.4460 C   0  0  0  0  0  0  0  0  0  0  0  0
  -32.6610   21.6750    5.2730 C   0  0  0  0  0  0  0  0  0  0  0  0
  -32.7100   20.1470    5.3990 C   0  0  0  0  0  0  0  0  0  0  0  0
  -32.8560   19.6330    6.8310 C   0  0  0  0  0  0  0  0  0  0  0  0
  -31.8390   18.5920    7.2260 C   0  0  0  0  0  0  0  0  0  0  0  0
  -31.4660   18.4030    8.3770 O   0  0  0  0  0  0  0  0  0  0  0  0
  -31.3510   17.9030    6.1650 O   0  0  0  0  0  0  0  0  0  0  0  0
  -38.9349   19.9291    8.4309 H   0  0  0  0  0  0  0  0  0  0  0  0
  -39.2507   21.4584    7.5432 H   0  0  0  0  0  0  0  0  0  0  0  0
  -40.4809   20.1495    7.5432 H   0  0  0  0  0  0  0  0  0  0  0  0
  -38.1779   18.8968    6.5850 H   0  0  0  0  0  0  0  0  0  0  0  0
  -39.5919   19.5151    5.6054 H   0  0  0  0  0  0  0  0  0  0  0  0
  -37.8487   20.4753    4.4776 H   0  0  0  0  0  0  0  0  0  0  0  0
  -38.2517   21.7616    5.7078 H   0  0  0  0  0  0  0  0  0  0  0  0
  -36.2861   19.8693    6.7213 H   0  0  0  0  0  0  0  0  0  0  0  0
  -35.7550   20.6866    5.1762 H   0  0  0  0  0  0  0  0  0  0  0  0
  -35.2431   22.5219    6.2657 H   0  0  0  0  0  0  0  0  0  0  0  0
  -36.9604   22.5781    6.9419 H   0  0  0  0  0  0  0  0  0  0  0  0
  -36.3293   21.3730    8.8668 H   0  0  0  0  0  0  0  0  0  0  0  0
  -34.6551   21.0975    8.1891 H   0  0  0  0  0  0  0  0  0  0  0  0
  -34.7708   23.8068    8.1498 H   0  0  0  0  0  0  0  0  0  0  0  0
  -35.7948   23.4410    9.5963 H   0  0  0  0  0  0  0  0  0  0  0  0
  -33.8563   23.2912   10.7376 H   0  0  0  0  0  0  0  0  0  0  0  0
  -33.6392   21.7110    9.8865 H   0  0  0  0  0  0  0  0  0  0  0  0
  -31.8903   23.8718    9.8012 H   0  0  0  0  0  0  0  0  0  0  0  0
  -31.9765   22.4738    8.6264 H   0  0  0  0  0  0  0  0  0  0  0  0
  -33.9018   24.4332    7.8630 H   0  0  0  0  0  0  0  0  0  0  0  0
  -32.2532   25.2197    8.1282 H   0  0  0  0  0  0  0  0  0  0  0  0
  -33.1463   24.0423    5.7968 H   0  0  0  0  0  0  0  0  0  0  0  0
  -31.4276   24.4237    6.2874 H   0  0  0  0  0  0  0  0  0  0  0  0
  -30.8769   22.2778    6.3207 H   0  0  0  0  0  0  0  0  0  0  0  0
  -32.2930   21.8833    7.3777 H   0  0  0  0  0  0  0  0  0  0  0  0
  -33.6927   22.0512    5.2095 H   0  0  0  0  0  0  0  0  0  0  0  0
  -32.0738   21.9039    4.3715 H   0  0  0  0  0  0  0  0  0  0  0  0
  -33.5667   19.7814    4.8138 H   0  0  0  0  0  0  0  0  0  0  0  0
  -31.7445   19.7717    5.0290 H   0  0  0  0  0  0  0  0  0  0  0  0
  -32.7563   20.4884    7.5154 H   0  0  0  0  0  0  0  0  0  0  0  0
  -33.8414   19.1479    6.8915 H   0  0  0  0  0  0  0  0  0  0  0  0
  1  2  1  0
  2  3  1  0
  3  4  1  0
  4  5  1  0
  5  6  1  0
  6  7  1  0
  7  8  1  0
  8  9  1  0
  9 10  1  0
 10 11  1  0
 11 12  1  0
 12 13  1  0
 13 14  1  0
 14 15  1  0
 15 16  1  0
 16 17  2  0
 16 18  1  0
  1 19  1  0
  1 20  1  0
  1 21  1  0
  2 22  1  0
  2 23  1  0
  3 24  1  0
  3 25  1  0
  4 26  1  0
  4 27  1  0
  5 28  1  0
  5 29  1  0
  6 30  1  0
  6 31  1  0
  7 32  1  0
  7 33  1  0
  8 34  1  0
  8 35  1  0
  9 36  1  0
  9 37  1  0
 10 38  1  0
 10 39  1  0
 11 40  1  0
 11 41  1  0
 12 42  1  0
 12 43  1  0
 13 44  1  0
 13 45  1  0
 14 46  1  0
 14 47  1  0
 15 48  1  0
 15 49  1  0
M  CHG  1  18  -1
M  END
>  <meeko>  (7) 
{"is_sidechain": [false], "free_energy": -5.621, "intermolecular_energy": -10.596, "internal_energy": -2.072}

$$$$
palmitate_Nlobe_run03
     RDKit          3D

 49 48  0  0  0  0  0  0  0  0999 V2000
  -31.8510   24.6440    8.7280 C   0  0  0  0  0  0  0  0  0  0  0  0
  -31.9940   24.8430    7.2280 C   0  0  0  0  0  0  0  0  0  0  0  0
  -32.3720   23.5660    6.4720 C   0  0  0  0  0  0  0  0  0  0  0  0
  -31.8970   22.2870    7.1690 C   0  0  0  0  0  0  0  0  0  0  0  0
  -32.4900   21.0070    6.5680 C   0  0  0  0  0  0  0  0  0  0  0  0
  -32.5340   19.7880    7.4950 C   0  0  0  0  0  0  0  0  0  0  0  0
  -33.9110   19.5410    8.1140 C   0  0  0  0  0  0  0  0  0  0  0  0
  -33.9930   20.1190    9.5290 C   0  0  0  0  0  0  0  0  0  0  0  0
  -35.1590   21.1030    9.6530 C   0  0  0  0  0  0  0  0  0  0  0  0
  -34.7320   22.5730    9.5870 C   0  0  0  0  0  0  0  0  0  0  0  0
  -35.2770   23.3750    8.4000 C   0  0  0  0  0  0  0  0  0  0  0  0
  -36.4550   22.7000    7.6930 C   0  0  0  0  0  0  0  0  0  0  0  0
  -36.0450   22.1490    6.3270 C   0  0  0  0  0  0  0  0  0  0  0  0
  -36.5940   20.7470    6.0360 C   0  0  0  0  0  0  0  0  0  0  0  0
  -37.8040   20.3520    6.8820 C   0  0  0  0  0  0  0  0  0  0  0  0
  -39.1370   20.6380    6.2360 C   0  0  0  0  0  0  0  0  0  0  0  0
  -39.6530   19.9200    5.3880 O   0  0  0  0  0  0  0  0  0  0  0  0
  -39.6940   21.7960    6.6660 O   0  0  0  0  0  0  0  0  0  0  0  0
  -32.4138   25.4272    9.2571 H   0  0  0  0  0  0  0  0  0  0  0  0
  -32.2472   23.6563    9.0063 H   0  0  0  0  0  0  0  0  0  0  0  0
  -30.7885   24.7045    9.0063 H   0  0  0  0  0  0  0  0  0  0  0  0
  -32.7757   25.5963    7.0504 H   0  0  0  0  0  0  0  0  0  0  0  0
  -31.0112   25.1617    6.8504 H   0  0  0  0  0  0  0  0  0  0  0  0
  -33.4673   23.5267    6.3785 H   0  0  0  0  0  0  0  0  0  0  0  0
  -31.8740   23.6076    5.4921 H   0  0  0  0  0  0  0  0  0  0  0  0
  -30.8012   22.2337    7.0898 H   0  0  0  0  0  0  0  0  0  0  0  0
  -32.2374   22.3420    8.2136 H   0  0  0  0  0  0  0  0  0  0  0  0
  -33.5207   21.2286    6.2542 H   0  0  0  0  0  0  0  0  0  0  0  0
  -31.8185   20.7280    5.7426 H   0  0  0  0  0  0  0  0  0  0  0  0
  -32.2488   18.8985    6.9141 H   0  0  0  0  0  0  0  0  0  0  0  0
  -31.8380   19.9864    8.3234 H   0  0  0  0  0  0  0  0  0  0  0  0
  -34.6776   20.0187    7.4862 H   0  0  0  0  0  0  0  0  0  0  0  0
  -34.0779   18.4552    8.1708 H   0  0  0  0  0  0  0  0  0  0  0  0
  -34.1382   19.2970   10.2454 H   0  0  0  0  0  0  0  0  0  0  0  0
  -33.0571   20.6559    9.7430 H   0  0  0  0  0  0  0  0  0  0  0  0
  -35.8660   20.9093    8.8329 H   0  0  0  0  0  0  0  0  0  0  0  0
  -35.6116   20.9431   10.6427 H   0  0  0  0  0  0  0  0  0  0  0  0
  -35.0718   23.0646   10.5105 H   0  0  0  0  0  0  0  0  0  0  0  0
  -33.6392   22.5606    9.4616 H   0  0  0  0  0  0  0  0  0  0  0  0
  -35.6085   24.3575    8.7671 H   0  0  0  0  0  0  0  0  0  0  0  0
  -34.4630   23.4558    7.6646 H   0  0  0  0  0  0  0  0  0  0  0  0
  -36.8204   21.8718    8.3179 H   0  0  0  0  0  0  0  0  0  0  0  0
  -37.2436   23.4515    7.5404 H   0  0  0  0  0  0  0  0  0  0  0  0
  -36.4155   22.8347    5.5508 H   0  0  0  0  0  0  0  0  0  0  0  0
  -34.9479   22.0698    6.3292 H   0  0  0  0  0  0  0  0  0  0  0  0
  -36.8873   20.7059    4.9766 H   0  0  0  0  0  0  0  0  0  0  0  0
  -35.7914   20.0382    6.2879 H   0  0  0  0  0  0  0  0  0  0  0  0
  -37.7445   19.2724    7.0844 H   0  0  0  0  0  0  0  0  0  0  0  0
  -37.7608   20.9629    7.7957 H   0  0  0  0  0  0  0  0  0  0  0  0
  1  2  1  0
  2  3  1  0
  3  4  1  0
  4  5  1  0
  5  6  1  0
  6  7  1  0
  7  8  1  0
  8  9  1  0
  9 10  1  0
 10 11  1  0
 11 12  1  0
 12 13  1  0
 13 14  1  0
 14 15  1  0
 15 16  1  0
 16 17  2  0
 16 18  1  0
  1 19  1  0
  1 20  1  0
  1 21  1  0
  2 22  1  0
  2 23  1  0
  3 24  1  0
  3 25  1  0
  4 26  1  0
  4 27  1  0
  5 28  1  0
  5 29  1  0
  6 30  1  0
  6 31  1  0
  7 32  1  0
  7 33  1  0
  8 34  1  0
  8 35  1  0
  9 36  1  0
  9 37  1  0
 10 38  1  0
 10 39  1  0
 11 40  1  0
 11 41  1  0
 12 42  1  0
 12 43  1  0
 13 44  1  0
 13 45  1  0
 14 46  1  0
 14 47  1  0
 15 48  1  0
 15 49  1  0
M  CHG  1  18  -1
M  END
>  <meeko>  (8) 
{"is_sidechain": [false], "free_energy": -5.618, "intermolecular_energy": -10.17, "internal_energy": -2.492}

$$$$
palmitate_Nlobe_run03
     RDKit          3D

 49 48  0  0  0  0  0  0  0  0999 V2000
  -38.5620   19.9040    6.9960 C   0  0  0  0  0  0  0  0  0  0  0  0
  -37.6670   20.9930    6.4250 C   0  0  0  0  0  0  0  0  0  0  0  0
  -37.0410   20.6270    5.0760 C   0  0  0  0  0  0  0  0  0  0  0  0
  -35.6610   21.2560    4.8590 C   0  0  0  0  0  0  0  0  0  0  0  0
  -34.5330   20.5260    5.5970 C   0  0  0  0  0  0  0  0  0  0  0  0
  -33.1390   21.1480    5.4760 C   0  0  0  0  0  0  0  0  0  0  0  0
  -32.2450   20.8860    6.6890 C   0  0  0  0  0  0  0  0  0  0  0  0
  -31.7120   22.1950    7.2780 C   0  0  0  0  0  0  0  0  0  0  0  0
  -32.2470   23.4030    6.5060 C   0  0  0  0  0  0  0  0  0  0  0  0
  -33.2200   24.2670    7.3150 C   0  0  0  0  0  0  0  0  0  0  0  0
  -34.6930   24.1840    6.9000 C   0  0  0  0  0  0  0  0  0  0  0  0
  -35.6050   23.6120    7.9890 C   0  0  0  0  0  0  0  0  0  0  0  0
  -34.7950   22.9100    9.0810 C   0  0  0  0  0  0  0  0  0  0  0  0
  -35.0740   21.4050    9.1850 C   0  0  0  0  0  0  0  0  0  0  0  0
  -34.8900   20.8210   10.5850 C   0  0  0  0  0  0  0  0  0  0  0  0
  -34.1830   19.4890   10.6170 C   0  0  0  0  0  0  0  0  0  0  0  0
  -33.8510   18.9160   11.6460 O   0  0  0  0  0  0  0  0  0  0  0  0
  -33.9200   19.0030    9.3790 O   0  0  0  0  0  0  0  0  0  0  0  0
  -38.5305   19.9423    8.0949 H   0  0  0  0  0  0  0  0  0  0  0  0
  -39.5953   20.0613    6.6531 H   0  0  0  0  0  0  0  0  0  0  0  0
  -38.2075   18.9208    6.6531 H   0  0  0  0  0  0  0  0  0  0  0  0
  -38.2688   21.9043    6.2934 H   0  0  0  0  0  0  0  0  0  0  0  0
  -36.8401   21.1370    7.1360 H   0  0  0  0  0  0  0  0  0  0  0  0
  -36.9384   19.5330    5.0238 H   0  0  0  0  0  0  0  0  0  0  0  0
  -37.7050   21.0184    4.2912 H   0  0  0  0  0  0  0  0  0  0  0  0
  -35.4379   21.2429    3.7819 H   0  0  0  0  0  0  0  0  0  0  0  0
  -35.7041   22.2779    5.2639 H   0  0  0  0  0  0  0  0  0  0  0  0
  -34.7954   20.4933    6.6647 H   0  0  0  0  0  0  0  0  0  0  0  0
  -34.4587   19.5370    5.1212 H   0  0  0  0  0  0  0  0  0  0  0  0
  -32.6477   20.7300    4.5850 H   0  0  0  0  0  0  0  0  0  0  0  0
  -33.2764   22.2371    5.4054 H   0  0  0  0  0  0  0  0  0  0  0  0
  -32.8288   20.3584    7.4576 H   0  0  0  0  0  0  0  0  0  0  0  0
  -31.3888   20.2761    6.3650 H   0  0  0  0  0  0  0  0  0  0  0  0
  -32.0279   22.2713    8.3289 H   0  0  0  0  0  0  0  0  0  0  0  0
  -30.6145   22.1906    7.2043 H   0  0  0  0  0  0  0  0  0  0  0  0
  -31.3939   24.0289    6.2052 H   0  0  0  0  0  0  0  0  0  0  0  0
  -32.8048   23.0122    5.6422 H   0  0  0  0  0  0  0  0  0  0  0  0
  -33.1488   23.9585    8.3684 H   0  0  0  0  0  0  0  0  0  0  0  0
  -32.9171   25.3083    7.1308 H   0  0  0  0  0  0  0  0  0  0  0  0
  -35.0418   25.1971    6.6509 H   0  0  0  0  0  0  0  0  0  0  0  0
  -34.7481   23.4997    6.0406 H   0  0  0  0  0  0  0  0  0  0  0  0
  -36.1807   24.4327    8.4417 H   0  0  0  0  0  0  0  0  0  0  0  0
  -36.2768   22.8739    7.5266 H   0  0  0  0  0  0  0  0  0  0  0  0
  -33.7257   23.0508    8.8649 H   0  0  0  0  0  0  0  0  0  0  0  0
  -35.0921   23.3589   10.0403 H   0  0  0  0  0  0  0  0  0  0  0  0
  -36.1132   21.2259    8.8720 H   0  0  0  0  0  0  0  0  0  0  0  0
  -34.3375   20.9052    8.5386 H   0  0  0  0  0  0  0  0  0  0  0  0
  -34.3042   21.5358   11.1816 H   0  0  0  0  0  0  0  0  0  0  0  0
  -35.8989   20.6505   10.9889 H   0  0  0  0  0  0  0  0  0  0  0  0
  1  2  1  0
  2  3  1  0
  3  4  1  0
  4  5  1  0
  5  6  1  0
  6  7  1  0
  7  8  1  0
  8  9  1  0
  9 10  1  0
 10 11  1  0
 11 12  1  0
 12 13  1  0
 13 14  1  0
 14 15  1  0
 15 16  1  0
 16 17  2  0
 16 18  1  0
  1 19  1  0
  1 20  1  0
  1 21  1  0
  2 22  1  0
  2 23  1  0
  3 24  1  0
  3 25  1  0
  4 26  1  0
  4 27  1  0
  5 28  1  0
  5 29  1  0
  6 30  1  0
  6 31  1  0
  7 32  1  0
  7 33  1  0
  8 34  1  0
  8 35  1  0
  9 36  1  0
  9 37  1  0
 10 38  1  0
 10 39  1  0
 11 40  1  0
 11 41  1  0
 12 42  1  0
 12 43  1  0
 13 44  1  0
 13 45  1  0
 14 46  1  0
 14 47  1  0
 15 48  1  0
 15 49  1  0
M  CHG  1  18  -1
M  END
>  <meeko>  (9) 
{"is_sidechain": [false], "free_energy": -5.586, "intermolecular_energy": -10.27, "internal_energy": -2.334}

$$$$
palmitate_Nlobe_run03
     RDKit          3D

 49 48  0  0  0  0  0  0  0  0999 V2000
  -39.6040   22.1710    7.4090 C   0  0  0  0  0  0  0  0  0  0  0  0
  -39.6460   20.6770    7.6910 C   0  0  0  0  0  0  0  0  0  0  0  0
  -38.9360   19.8320    6.6290 C   0  0  0  0  0  0  0  0  0  0  0  0
  -38.9150   20.4910    5.2460 C   0  0  0  0  0  0  0  0  0  0  0  0
  -37.5200   20.5310    4.6090 C   0  0  0  0  0  0  0  0  0  0  0  0
  -36.3370   20.5040    5.5810 C   0  0  0  0  0  0  0  0  0  0  0  0
  -36.0440   21.8600    6.2240 C   0  0  0  0  0  0  0  0  0  0  0  0
  -35.9360   21.7410    7.7460 C   0  0  0  0  0  0  0  0  0  0  0  0
  -35.4160   23.0410    8.3640 C   0  0  0  0  0  0  0  0  0  0  0  0
  -35.1890   24.1590    7.3430 C   0  0  0  0  0  0  0  0  0  0  0  0
  -33.7270   24.5310    7.0710 C   0  0  0  0  0  0  0  0  0  0  0  0
  -32.7410   23.8970    8.0560 C   0  0  0  0  0  0  0  0  0  0  0  0
  -31.7590   22.9680    7.3410 C   0  0  0  0  0  0  0  0  0  0  0  0
  -32.3150   22.3600    6.0470 C   0  0  0  0  0  0  0  0  0  0  0  0
  -32.3960   20.8330    6.0480 C   0  0  0  0  0  0  0  0  0  0  0  0
  -32.7250   20.2260    4.7070 C   0  0  0  0  0  0  0  0  0  0  0  0
  -32.4600   19.0720    4.3970 O   0  0  0  0  0  0  0  0  0  0  0  0
  -33.3180   21.1040    3.8620 O   0  0  0  0  0  0  0  0  0  0  0  0
  -39.5885   22.7234    8.3601 H   0  0  0  0  0  0  0  0  0  0  0  0
  -38.6988   22.4098    6.8315 H   0  0  0  0  0  0  0  0  0  0  0  0
  -40.4944   22.4603    6.8315 H   0  0  0  0  0  0  0  0  0  0  0  0
  -39.1630   20.4927    8.6620 H   0  0  0  0  0  0  0  0  0  0  0  0
  -40.7045   20.3777    7.6865 H   0  0  0  0  0  0  0  0  0  0  0  0
  -37.8979   19.6650    6.9521 H   0  0  0  0  0  0  0  0  0  0  0  0
  -39.4964   18.8903    6.5332 H   0  0  0  0  0  0  0  0  0  0  0  0
  -39.5854   19.9267    4.5811 H   0  0  0  0  0  0  0  0  0  0  0  0
  -39.2403   21.5334    5.3790 H   0  0  0  0  0  0  0  0  0  0  0  0
  -37.4288   19.6598    3.9436 H   0  0  0  0  0  0  0  0  0  0  0  0
  -37.4575   21.5003    4.0927 H   0  0  0  0  0  0  0  0  0  0  0  0
  -36.5591   19.7808    6.3796 H   0  0  0  0  0  0  0  0  0  0  0  0
  -35.4468   20.2231    4.9991 H   0  0  0  0  0  0  0  0  0  0  0  0
  -35.0944   22.2476    5.8264 H   0  0  0  0  0  0  0  0  0  0  0  0
  -36.8726   22.5435    5.9867 H   0  0  0  0  0  0  0  0  0  0  0  0
  -36.9303   21.5185    8.1606 H   0  0  0  0  0  0  0  0  0  0  0  0
  -35.2286   20.9330    7.9843 H   0  0  0  0  0  0  0  0  0  0  0  0
  -36.1495   23.3911    9.1052 H   0  0  0  0  0  0  0  0  0  0  0  0
  -34.4390   22.8144    8.8157 H   0  0  0  0  0  0  0  0  0  0  0  0
  -35.6388   23.8420    6.3906 H   0  0  0  0  0  0  0  0  0  0  0  0
  -35.6486   25.0581    7.7793 H   0  0  0  0  0  0  0  0  0  0  0  0
  -33.4665   24.1985    6.0553 H   0  0  0  0  0  0  0  0  0  0  0  0
  -33.6440   25.6216    7.1877 H   0  0  0  0  0  0  0  0  0  0  0  0
  -32.1764   24.6947    8.5608 H   0  0  0  0  0  0  0  0  0  0  0  0
  -33.3124   23.3029    8.7843 H   0  0  0  0  0  0  0  0  0  0  0  0
  -30.8545   23.5430    7.0937 H   0  0  0  0  0  0  0  0  0  0  0  0
  -31.5514   22.1321    8.0253 H   0  0  0  0  0  0  0  0  0  0  0  0
  -33.3282   22.7578    5.8881 H   0  0  0  0  0  0  0  0  0  0  0  0
  -31.6142   22.6358    5.2452 H   0  0  0  0  0  0  0  0  0  0  0  0
  -31.4235   20.4370    6.3757 H   0  0  0  0  0  0  0  0  0  0  0  0
  -33.2192   20.5626    6.7256 H   0  0  0  0  0  0  0  0  0  0  0  0
  1  2  1  0
  2  3  1  0
  3  4  1  0
  4  5  1  0
  5  6  1  0
  6  7  1  0
  7  8  1  0
  8  9  1  0
  9 10  1  0
 10 11  1  0
 11 12  1  0
 12 13  1  0
 13 14  1  0
 14 15  1  0
 15 16  1  0
 16 17  2  0
 16 18  1  0
  1 19  1  0
  1 20  1  0
  1 21  1  0
  2 22  1  0
  2 23  1  0
  3 24  1  0
  3 25  1  0
  4 26  1  0
  4 27  1  0
  5 28  1  0
  5 29  1  0
  6 30  1  0
  6 31  1  0
  7 32  1  0
  7 33  1  0
  8 34  1  0
  8 35  1  0
  9 36  1  0
  9 37  1  0
 10 38  1  0
 10 39  1  0
 11 40  1  0
 11 41  1  0
 12 42  1  0
 12 43  1  0
 13 44  1  0
 13 45  1  0
 14 46  1  0
 14 47  1  0
 15 48  1  0
 15 49  1  0
M  CHG  1  18  -1
M  END
>  <meeko>  (10) 
{"is_sidechain": [false], "free_energy": -5.574, "intermolecular_energy": -10.475, "internal_energy": -2.107}

$$$$
palmitate_Nlobe_run03
     RDKit          3D

 49 48  0  0  0  0  0  0  0  0999 V2000
  -37.7630   20.8950    6.2070 C   0  0  0  0  0  0  0  0  0  0  0  0
  -37.0530   21.8300    7.1740 C   0  0  0  0  0  0  0  0  0  0  0  0
  -35.7470   22.4080    6.6220 C   0  0  0  0  0  0  0  0  0  0  0  0
  -35.3850   23.7690    7.2230 C   0  0  0  0  0  0  0  0  0  0  0  0
  -33.9390   24.1970    6.9450 C   0  0  0  0  0  0  0  0  0  0  0  0
  -33.0610   24.4370    8.1760 C   0  0  0  0  0  0  0  0  0  0  0  0
  -32.6290   23.1490    8.8790 C   0  0  0  0  0  0  0  0  0  0  0  0
  -33.3970   22.9470   10.1870 C   0  0  0  0  0  0  0  0  0  0  0  0
  -34.5830   22.0000    9.9870 C   0  0  0  0  0  0  0  0  0  0  0  0
  -34.4630   20.6910   10.7730 C   0  0  0  0  0  0  0  0  0  0  0  0
  -34.0680   19.4550    9.9570 C   0  0  0  0  0  0  0  0  0  0  0  0
  -34.3090   19.6110    8.4530 C   0  0  0  0  0  0  0  0  0  0  0  0
  -33.2810   18.8240    7.6390 C   0  0  0  0  0  0  0  0  0  0  0  0
  -32.1720   19.6950    7.0370 C   0  0  0  0  0  0  0  0  0  0  0  0
  -32.6580   20.7300    6.0220 C   0  0  0  0  0  0  0  0  0  0  0  0
  -32.8360   20.1950    4.6230 C   0  0  0  0  0  0  0  0  0  0  0  0
  -32.3340   19.1530    4.2220 O   0  0  0  0  0  0  0  0  0  0  0  0
  -33.5850   21.0080    3.8400 O   0  0  0  0  0  0  0  0  0  0  0  0
  -38.3329   20.1445    6.7744 H   0  0  0  0  0  0  0  0  0  0  0  0
  -38.4501   21.4753    5.5736 H   0  0  0  0  0  0  0  0  0  0  0  0
  -37.0195   20.3890    5.5736 H   0  0  0  0  0  0  0  0  0  0  0  0
  -37.7296   22.6643    7.4108 H   0  0  0  0  0  0  0  0  0  0  0  0
  -36.7924   21.2368    8.0629 H   0  0  0  0  0  0  0  0  0  0  0  0
  -34.9326   21.7018    6.8412 H   0  0  0  0  0  0  0  0  0  0  0  0
  -35.8876   22.5563    5.5411 H   0  0  0  0  0  0  0  0  0  0  0  0
  -36.0598   24.5271    6.7990 H   0  0  0  0  0  0  0  0  0  0  0  0
  -35.4909   23.6786    8.3142 H   0  0  0  0  0  0  0  0  0  0  0  0
  -33.4648   23.4086    6.3421 H   0  0  0  0  0  0  0  0  0  0  0  0
  -34.0105   25.1704    6.4377 H   0  0  0  0  0  0  0  0  0  0  0  0
  -32.1584   24.9801    7.8591 H   0  0  0  0  0  0  0  0  0  0  0  0
  -33.6631   25.0114    8.8954 H   0  0  0  0  0  0  0  0  0  0  0  0
  -32.8231   22.2948    8.2136 H   0  0  0  0  0  0  0  0  0  0  0  0
  -31.5568   23.2232    9.1130 H   0  0  0  0  0  0  0  0  0  0  0  0
  -32.7186   22.5196   10.9400 H   0  0  0  0  0  0  0  0  0  0  0  0
  -33.7802   23.9221   10.5222 H   0  0  0  0  0  0  0  0  0  0  0  0
  -35.4987   22.5167   10.3101 H   0  0  0  0  0  0  0  0  0  0  0  0
  -34.6065   21.7340    8.9199 H   0  0  0  0  0  0  0  0  0  0  0  0
  -33.7031   20.8357   11.5551 H   0  0  0  0  0  0  0  0  0  0  0  0
  -35.4711   20.4826   11.1606 H   0  0  0  0  0  0  0  0  0  0  0  0
  -32.9979   19.2586   10.1192 H   0  0  0  0  0  0  0  0  0  0  0  0
  -34.7025   18.6249   10.3011 H   0  0  0  0  0  0  0  0  0  0  0  0
  -35.3162   19.2406    8.2116 H   0  0  0  0  0  0  0  0  0  0  0  0
  -34.2128   20.6761    8.1954 H   0  0  0  0  0  0  0  0  0  0  0  0
  -32.8157   18.0760    8.2978 H   0  0  0  0  0  0  0  0  0  0  0  0
  -33.8211   18.3652    6.7976 H   0  0  0  0  0  0  0  0  0  0  0  0
  -31.6705   20.2283    7.8580 H   0  0  0  0  0  0  0  0  0  0  0  0
  -31.5011   19.0144    6.4923 H   0  0  0  0  0  0  0  0  0  0  0  0
  -33.6266   21.1212    6.3665 H   0  0  0  0  0  0  0  0  0  0  0  0
  -31.8785   21.5041    5.9652 H   0  0  0  0  0  0  0  0  0  0  0  0
  1  2  1  0
  2  3  1  0
  3  4  1  0
  4  5  1  0
  5  6  1  0
  6  7  1  0
  7  8  1  0
  8  9  1  0
  9 10  1  0
 10 11  1  0
 11 12  1  0
 12 13  1  0
 13 14  1  0
 14 15  1  0
 15 16  1  0
 16 17  2  0
 16 18  1  0
  1 19  1  0
  1 20  1  0
  1 21  1  0
  2 22  1  0
  2 23  1  0
  3 24  1  0
  3 25  1  0
  4 26  1  0
  4 27  1  0
  5 28  1  0
  5 29  1  0
  6 30  1  0
  6 31  1  0
  7 32  1  0
  7 33  1  0
  8 34  1  0
  8 35  1  0
  9 36  1  0
  9 37  1  0
 10 38  1  0
 10 39  1  0
 11 40  1  0
 11 41  1  0
 12 42  1  0
 12 43  1  0
 13 44  1  0
 13 45  1  0
 14 46  1  0
 14 47  1  0
 15 48  1  0
 15 49  1  0
M  CHG  1  18  -1
M  END
>  <meeko>  (11) 
{"is_sidechain": [false], "free_energy": -5.564, "intermolecular_energy": -10.573, "internal_energy": -1.991}

$$$$
palmitate_Nlobe_run03
     RDKit          3D

 49 48  0  0  0  0  0  0  0  0999 V2000
  -39.7770   22.6020    7.5340 C   0  0  0  0  0  0  0  0  0  0  0  0
  -39.7050   21.0880    7.6500 C   0  0  0  0  0  0  0  0  0  0  0  0
  -38.7040   20.4450    6.6860 C   0  0  0  0  0  0  0  0  0  0  0  0
  -37.2530   20.5400    7.1680 C   0  0  0  0  0  0  0  0  0  0  0  0
  -36.3040   21.1600    6.1350 C   0  0  0  0  0  0  0  0  0  0  0  0
  -35.5880   22.4430    6.5670 C   0  0  0  0  0  0  0  0  0  0  0  0
  -35.8200   22.8080    8.0340 C   0  0  0  0  0  0  0  0  0  0  0  0
  -34.4940   22.9430    8.7880 C   0  0  0  0  0  0  0  0  0  0  0  0
  -34.5770   22.2870   10.1680 C   0  0  0  0  0  0  0  0  0  0  0  0
  -35.1200   20.8550   10.1360 C   0  0  0  0  0  0  0  0  0  0  0  0
  -34.0780   19.7490    9.9330 C   0  0  0  0  0  0  0  0  0  0  0  0
  -34.0280   19.2090    8.5010 C   0  0  0  0  0  0  0  0  0  0  0  0
  -32.5910   19.1390    7.9810 C   0  0  0  0  0  0  0  0  0  0  0  0
  -32.3580   19.9460    6.6980 C   0  0  0  0  0  0  0  0  0  0  0  0
  -31.8630   21.3740    6.9280 C   0  0  0  0  0  0  0  0  0  0  0  0
  -32.1930   22.3340    5.8130 C   0  0  0  0  0  0  0  0  0  0  0  0
  -32.0980   23.5510    5.9090 O   0  0  0  0  0  0  0  0  0  0  0  0
  -32.6400   21.7110    4.6950 O   0  0  0  0  0  0  0  0  0  0  0  0
  -39.7981   23.0462    8.5401 H   0  0  0  0  0  0  0  0  0  0  0  0
  -38.8954   22.9703    6.9890 H   0  0  0  0  0  0  0  0  0  0  0  0
  -40.6896   22.8850    6.9890 H   0  0  0  0  0  0  0  0  0  0  0  0
  -39.4107   20.8319    8.6785 H   0  0  0  0  0  0  0  0  0  0  0  0
  -40.6997   20.6974    7.3892 H   0  0  0  0  0  0  0  0  0  0  0  0
  -38.9644   19.3827    6.5693 H   0  0  0  0  0  0  0  0  0  0  0  0
  -38.7683   20.9940    5.7350 H   0  0  0  0  0  0  0  0  0  0  0  0
  -37.2282   21.1574    8.0781 H   0  0  0  0  0  0  0  0  0  0  0  0
  -36.9052   19.5126    7.3509 H   0  0  0  0  0  0  0  0  0  0  0  0
  -35.5357   20.4113    5.8916 H   0  0  0  0  0  0  0  0  0  0  0  0
  -36.9385   21.4466    5.2834 H   0  0  0  0  0  0  0  0  0  0  0  0
  -34.5078   22.3089    6.4084 H   0  0  0  0  0  0  0  0  0  0  0  0
  -36.0006   23.2630    5.9609 H   0  0  0  0  0  0  0  0  0  0  0  0
  -36.3604   23.7648    8.0845 H   0  0  0  0  0  0  0  0  0  0  0  0
  -36.4074   22.0053    8.5037 H   0  0  0  0  0  0  0  0  0  0  0  0
  -33.6981   22.4557    8.2056 H   0  0  0  0  0  0  0  0  0  0  0  0
  -34.2749   24.0126    8.9217 H   0  0  0  0  0  0  0  0  0  0  0  0
  -33.5674   22.2662   10.6042 H   0  0  0  0  0  0  0  0  0  0  0  0
  -35.2799   22.8846   10.7669 H   0  0  0  0  0  0  0  0  0  0  0  0
  -35.6300   20.6663   11.0922 H   0  0  0  0  0  0  0  0  0  0  0  0
  -35.7810   20.8065    9.2581 H   0  0  0  0  0  0  0  0  0  0  0  0
  -33.0872   20.1539   10.1867 H   0  0  0  0  0  0  0  0  0  0  0  0
  -34.3666   18.9106   10.5839 H   0  0  0  0  0  0  0  0  0  0  0  0
  -34.4645   18.1995    8.4837 H   0  0  0  0  0  0  0  0  0  0  0  0
  -34.5978   19.8916    7.8534 H   0  0  0  0  0  0  0  0  0  0  0  0
  -31.9202   19.5271    8.7617 H   0  0  0  0  0  0  0  0  0  0  0  0
  -32.3887   18.0853    7.7384 H   0  0  0  0  0  0  0  0  0  0  0  0
  -31.6093   19.4166    6.0904 H   0  0  0  0  0  0  0  0  0  0  0  0
  -33.3351   20.0302    6.1997 H   0  0  0  0  0  0  0  0  0  0  0  0
  -32.3205   21.7519    7.8542 H   0  0  0  0  0  0  0  0  0  0  0  0
  -30.7656   21.3212    6.9828 H   0  0  0  0  0  0  0  0  0  0  0  0
  1  2  1  0
  2  3  1  0
  3  4  1  0
  4  5  1  0
  5  6  1  0
  6  7  1  0
  7  8  1  0
  8  9  1  0
  9 10  1  0
 10 11  1  0
 11 12  1  0
 12 13  1  0
 13 14  1  0
 14 15  1  0
 15 16  1  0
 16 17  2  0
 16 18  1  0
  1 19  1  0
  1 20  1  0
  1 21  1  0
  2 22  1  0
  2 23  1  0
  3 24  1  0
  3 25  1  0
  4 26  1  0
  4 27  1  0
  5 28  1  0
  5 29  1  0
  6 30  1  0
  6 31  1  0
  7 32  1  0
  7 33  1  0
  8 34  1  0
  8 35  1  0
  9 36  1  0
  9 37  1  0
 10 38  1  0
 10 39  1  0
 11 40  1  0
 11 41  1  0
 12 42  1  0
 12 43  1  0
 13 44  1  0
 13 45  1  0
 14 46  1  0
 14 47  1  0
 15 48  1  0
 15 49  1  0
M  CHG  1  18  -1
M  END
>  <meeko>  (12) 
{"is_sidechain": [false], "free_energy": -5.536, "intermolecular_energy": -10.233, "internal_energy": -2.281}

$$$$
palmitate_Nlobe_run03
     RDKit          3D

 49 48  0  0  0  0  0  0  0  0999 V2000
  -34.3300   18.7290   12.2020 C   0  0  0  0  0  0  0  0  0  0  0  0
  -33.9920   19.2440   10.8120 C   0  0  0  0  0  0  0  0  0  0  0  0
  -34.8250   20.4570   10.3880 C   0  0  0  0  0  0  0  0  0  0  0  0
  -34.3740   21.7630   11.0490 C   0  0  0  0  0  0  0  0  0  0  0  0
  -34.4010   22.9700   10.1030 C   0  0  0  0  0  0  0  0  0  0  0  0
  -35.1270   22.7620    8.7710 C   0  0  0  0  0  0  0  0  0  0  0  0
  -35.3430   24.0560    7.9850 C   0  0  0  0  0  0  0  0  0  0  0  0
  -34.4110   24.1320    6.7740 C   0  0  0  0  0  0  0  0  0  0  0  0
  -32.9450   24.0330    7.2030 C   0  0  0  0  0  0  0  0  0  0  0  0
  -32.0500   23.3330    6.1760 C   0  0  0  0  0  0  0  0  0  0  0  0
  -31.4100   22.0170    6.6320 C   0  0  0  0  0  0  0  0  0  0  0  0
  -32.2080   21.2920    7.7190 C   0  0  0  0  0  0  0  0  0  0  0  0
  -32.4040   19.8150    7.3750 C   0  0  0  0  0  0  0  0  0  0  0  0
  -33.0870   19.5810    6.0210 C   0  0  0  0  0  0  0  0  0  0  0  0
  -34.4470   20.2620    5.8720 C   0  0  0  0  0  0  0  0  0  0  0  0
  -34.6140   21.0450    4.5930 C   0  0  0  0  0  0  0  0  0  0  0  0
  -35.6490   21.6120    4.2690 O   0  0  0  0  0  0  0  0  0  0  0  0
  -33.5030   21.0280    3.8160 O   0  0  0  0  0  0  0  0  0  0  0  0
  -33.8913   19.3975   12.9574 H   0  0  0  0  0  0  0  0  0  0  0  0
  -35.4225   18.7013   12.3271 H   0  0  0  0  0  0  0  0  0  0  0  0
  -33.9208   17.7157   12.3271 H   0  0  0  0  0  0  0  0  0  0  0  0
  -32.9296   19.5288   10.7955 H   0  0  0  0  0  0  0  0  0  0  0  0
  -34.2190   18.4335   10.1038 H   0  0  0  0  0  0  0  0  0  0  0  0
  -34.7442   20.5719    9.2970 H   0  0  0  0  0  0  0  0  0  0  0  0
  -35.8601   20.2697   10.7097 H   0  0  0  0  0  0  0  0  0  0  0  0
  -35.0412   21.9716   11.8983 H   0  0  0  0  0  0  0  0  0  0  0  0
  -33.3293   21.6221   11.3631 H   0  0  0  0  0  0  0  0  0  0  0  0
  -34.8952   23.7996   10.6298 H   0  0  0  0  0  0  0  0  0  0  0  0
  -33.3506   23.1655    9.8412 H   0  0  0  0  0  0  0  0  0  0  0  0
  -34.5305   22.0748    8.1530 H   0  0  0  0  0  0  0  0  0  0  0  0
  -36.1221   22.3558    9.0050 H   0  0  0  0  0  0  0  0  0  0  0  0
  -36.3860   24.0946    7.6376 H   0  0  0  0  0  0  0  0  0  0  0  0
  -35.1222   24.9060    8.6474 H   0  0  0  0  0  0  0  0  0  0  0  0
  -34.6423   23.3026    6.0895 H   0  0  0  0  0  0  0  0  0  0  0  0
  -34.5651   25.0993    6.2733 H   0  0  0  0  0  0  0  0  0  0  0  0
  -32.5602   25.0510    7.3627 H   0  0  0  0  0  0  0  0  0  0  0  0
  -32.9182   23.4262    8.1201 H   0  0  0  0  0  0  0  0  0  0  0  0
  -32.6608   23.1202    5.2863 H   0  0  0  0  0  0  0  0  0  0  0  0
  -31.2131   24.0226    5.9915 H   0  0  0  0  0  0  0  0  0  0  0  0
  -31.3250   21.3512    5.7605 H   0  0  0  0  0  0  0  0  0  0  0  0
  -30.4299   22.2675    7.0641 H   0  0  0  0  0  0  0  0  0  0  0  0
  -31.6652   21.3685    8.6727 H   0  0  0  0  0  0  0  0  0  0  0  0
  -33.1985   21.7644    7.7949 H   0  0  0  0  0  0  0  0  0  0  0  0
  -31.4171   19.3296    7.3543 H   0  0  0  0  0  0  0  0  0  0  0  0
  -33.0650   19.3911    8.1453 H   0  0  0  0  0  0  0  0  0  0  0  0
  -32.4234   19.9621    5.2308 H   0  0  0  0  0  0  0  0  0  0  0  0
  -33.2686   18.4988    5.9447 H   0  0  0  0  0  0  0  0  0  0  0  0
  -35.2260   19.4860    5.9048 H   0  0  0  0  0  0  0  0  0  0  0  0
  -34.5283   20.9856    6.6965 H   0  0  0  0  0  0  0  0  0  0  0  0
  1  2  1  0
  2  3  1  0
  3  4  1  0
  4  5  1  0
  5  6  1  0
  6  7  1  0
  7  8  1  0
  8  9  1  0
  9 10  1  0
 10 11  1  0
 11 12  1  0
 12 13  1  0
 13 14  1  0
 14 15  1  0
 15 16  1  0
 16 17  2  0
 16 18  1  0
  1 19  1  0
  1 20  1  0
  1 21  1  0
  2 22  1  0
  2 23  1  0
  3 24  1  0
  3 25  1  0
  4 26  1  0
  4 27  1  0
  5 28  1  0
  5 29  1  0
  6 30  1  0
  6 31  1  0
  7 32  1  0
  7 33  1  0
  8 34  1  0
  8 35  1  0
  9 36  1  0
  9 37  1  0
 10 38  1  0
 10 39  1  0
 11 40  1  0
 11 41  1  0
 12 42  1  0
 12 43  1  0
 13 44  1  0
 13 45  1  0
 14 46  1  0
 14 47  1  0
 15 48  1  0
 15 49  1  0
M  CHG  1  18  -1
M  END
>  <meeko>  (13) 
{"is_sidechain": [false], "free_energy": -5.526, "intermolecular_energy": -10.508, "internal_energy": -1.987}

$$$$
palmitate_Nlobe_run03
     RDKit          3D

 49 48  0  0  0  0  0  0  0  0999 V2000
  -38.3350   20.5910    6.7660 C   0  0  0  0  0  0  0  0  0  0  0  0
  -37.1090   21.4080    7.1420 C   0  0  0  0  0  0  0  0  0  0  0  0
  -36.0160   21.4030    6.0690 C   0  0  0  0  0  0  0  0  0  0  0  0
  -35.0060   22.5440    6.2290 C   0  0  0  0  0  0  0  0  0  0  0  0
  -33.5450   22.0850    6.1400 C   0  0  0  0  0  0  0  0  0  0  0  0
  -32.4860   23.1750    6.3290 C   0  0  0  0  0  0  0  0  0  0  0  0
  -33.0300   24.4480    6.9800 C   0  0  0  0  0  0  0  0  0  0  0  0
  -32.4230   24.6640    8.3680 C   0  0  0  0  0  0  0  0  0  0  0  0
  -32.2810   23.3370    9.1180 C   0  0  0  0  0  0  0  0  0  0  0  0
  -33.3550   23.1180   10.1880 C   0  0  0  0  0  0  0  0  0  0  0  0
  -34.5600   22.2710    9.7650 C   0  0  0  0  0  0  0  0  0  0  0  0
  -34.5240   20.8400   10.3080 C   0  0  0  0  0  0  0  0  0  0  0  0
  -34.5680   19.8130    9.1750 C   0  0  0  0  0  0  0  0  0  0  0  0
  -33.2060   19.5620    8.5160 C   0  0  0  0  0  0  0  0  0  0  0  0
  -33.2330   18.5490    7.3710 C   0  0  0  0  0  0  0  0  0  0  0  0
  -31.8840   18.2680    6.7570 C   0  0  0  0  0  0  0  0  0  0  0  0
  -31.7050   18.0840    5.5600 O   0  0  0  0  0  0  0  0  0  0  0  0
  -30.8900   18.2060    7.6750 O   0  0  0  0  0  0  0  0  0  0  0  0
  -38.8441   20.2518    7.6802 H   0  0  0  0  0  0  0  0  0  0  0  0
  -39.0220   21.2125    6.1729 H   0  0  0  0  0  0  0  0  0  0  0  0
  -38.0259   19.7177    6.1729 H   0  0  0  0  0  0  0  0  0  0  0  0
  -37.4234   22.4481    7.3133 H   0  0  0  0  0  0  0  0  0  0  0  0
  -36.6783   20.9472    8.0432 H   0  0  0  0  0  0  0  0  0  0  0  0
  -35.4749   20.4470    6.1259 H   0  0  0  0  0  0  0  0  0  0  0  0
  -36.5123   21.5405    5.0970 H   0  0  0  0  0  0  0  0  0  0  0  0
  -35.1876   23.2836    5.4352 H   0  0  0  0  0  0  0  0  0  0  0  0
  -35.1517   22.9665    7.2341 H   0  0  0  0  0  0  0  0  0  0  0  0
  -33.3843   21.3216    6.9155 H   0  0  0  0  0  0  0  0  0  0  0  0
  -33.4118   21.7174    5.1118 H   0  0  0  0  0  0  0  0  0  0  0  0
  -31.6834   22.7741    6.9655 H   0  0  0  0  0  0  0  0  0  0  0  0
  -32.1250   23.4525    5.3277 H   0  0  0  0  0  0  0  0  0  0  0  0
  -32.7836   25.3101    6.3428 H   0  0  0  0  0  0  0  0  0  0  0  0
  -34.1197   24.3445    7.0892 H   0  0  0  0  0  0  0  0  0  0  0  0
  -31.4295   25.1233    8.2585 H   0  0  0  0  0  0  0  0  0  0  0  0
  -33.0907   25.3219    8.9437 H   0  0  0  0  0  0  0  0  0  0  0  0
  -32.3453   22.5166    8.3880 H   0  0  0  0  0  0  0  0  0  0  0  0
  -31.3108   23.3620    9.6359 H   0  0  0  0  0  0  0  0  0  0  0  0
  -32.8789   22.6214   11.0463 H   0  0  0  0  0  0  0  0  0  0  0  0
  -33.7580   24.1164   10.4132 H   0  0  0  0  0  0  0  0  0  0  0  0
  -35.4746   22.7595   10.1323 H   0  0  0  0  0  0  0  0  0  0  0  0
  -34.5354   22.2004    8.6675 H   0  0  0  0  0  0  0  0  0  0  0  0
  -33.5974   20.6986   10.8837 H   0  0  0  0  0  0  0  0  0  0  0  0
  -35.4066   20.6893   10.9469 H   0  0  0  0  0  0  0  0  0  0  0  0
  -34.9366   18.8606    9.5839 H   0  0  0  0  0  0  0  0  0  0  0  0
  -35.2306   20.2209    8.3975 H   0  0  0  0  0  0  0  0  0  0  0  0
  -32.8345   20.5186    8.1198 H   0  0  0  0  0  0  0  0  0  0  0  0
  -32.5552   19.1372    9.2945 H   0  0  0  0  0  0  0  0  0  0  0  0
  -33.6389   17.6027    7.7581 H   0  0  0  0  0  0  0  0  0  0  0  0
  -33.8545   18.9886    6.5769 H   0  0  0  0  0  0  0  0  0  0  0  0
  1  2  1  0
  2  3  1  0
  3  4  1  0
  4  5  1  0
  5  6  1  0
  6  7  1  0
  7  8  1  0
  8  9  1  0
  9 10  1  0
 10 11  1  0
 11 12  1  0
 12 13  1  0
 13 14  1  0
 14 15  1  0
 15 16  1  0
 16 17  2  0
 16 18  1  0
  1 19  1  0
  1 20  1  0
  1 21  1  0
  2 22  1  0
  2 23  1  0
  3 24  1  0
  3 25  1  0
  4 26  1  0
  4 27  1  0
  5 28  1  0
  5 29  1  0
  6 30  1  0
  6 31  1  0
  7 32  1  0
  7 33  1  0
  8 34  1  0
  8 35  1  0
  9 36  1  0
  9 37  1  0
 10 38  1  0
 10 39  1  0
 11 40  1  0
 11 41  1  0
 12 42  1  0
 12 43  1  0
 13 44  1  0
 13 45  1  0
 14 46  1  0
 14 47  1  0
 15 48  1  0
 15 49  1  0
M  CHG  1  18  -1
M  END
>  <meeko>  (14) 
{"is_sidechain": [false], "free_energy": -5.523, "intermolecular_energy": -10.403, "internal_energy": -2.086}

$$$$
palmitate_Nlobe_run03
     RDKit          3D

 49 48  0  0  0  0  0  0  0  0999 V2000
  -34.0910   19.5050    9.7620 C   0  0  0  0  0  0  0  0  0  0  0  0
  -34.7910   20.8290   10.0210 C   0  0  0  0  0  0  0  0  0  0  0  0
  -34.1450   21.6560   11.1370 C   0  0  0  0  0  0  0  0  0  0  0  0
  -33.6810   23.0410   10.6730 C   0  0  0  0  0  0  0  0  0  0  0  0
  -32.8090   23.0030    9.4120 C   0  0  0  0  0  0  0  0  0  0  0  0
  -32.0540   24.2940    9.0800 C   0  0  0  0  0  0  0  0  0  0  0  0
  -32.2530   24.7640    7.6380 C   0  0  0  0  0  0  0  0  0  0  0  0
  -33.0240   23.7260    6.8180 C   0  0  0  0  0  0  0  0  0  0  0  0
  -34.4790   24.1560    6.6180 C   0  0  0  0  0  0  0  0  0  0  0  0
  -35.4940   23.2130    7.2720 C   0  0  0  0  0  0  0  0  0  0  0  0
  -35.9910   22.0550    6.4010 C   0  0  0  0  0  0  0  0  0  0  0  0
  -35.0500   20.8470    6.3920 C   0  0  0  0  0  0  0  0  0  0  0  0
  -34.3630   20.6850    5.0350 C   0  0  0  0  0  0  0  0  0  0  0  0
  -32.8460   20.4760    5.1320 C   0  0  0  0  0  0  0  0  0  0  0  0
  -32.3490   20.0750    6.5200 C   0  0  0  0  0  0  0  0  0  0  0  0
  -31.7830   18.6790    6.6000 C   0  0  0  0  0  0  0  0  0  0  0  0
  -31.6420   17.9430    5.6320 O   0  0  0  0  0  0  0  0  0  0  0  0
  -31.4760   18.3070    7.8670 O   0  0  0  0  0  0  0  0  0  0  0  0
  -33.8395   19.0294   10.7214 H   0  0  0  0  0  0  0  0  0  0  0  0
  -34.7574   18.8439    9.1886 H   0  0  0  0  0  0  0  0  0  0  0  0
  -33.1694   19.6835    9.1886 H   0  0  0  0  0  0  0  0  0  0  0  0
  -34.7708   21.4203    9.0937 H   0  0  0  0  0  0  0  0  0  0  0  0
  -35.8156   20.5943   10.3451 H   0  0  0  0  0  0  0  0  0  0  0  0
  -34.8798   21.7864   11.9452 H   0  0  0  0  0  0  0  0  0  0  0  0
  -33.2521   21.1087   11.4735 H   0  0  0  0  0  0  0  0  0  0  0  0
  -34.5700   23.6539   10.4633 H   0  0  0  0  0  0  0  0  0  0  0  0
  -33.0645   23.4631   11.4803 H   0  0  0  0  0  0  0  0  0  0  0  0
  -32.0662   22.2019    9.5402 H   0  0  0  0  0  0  0  0  0  0  0  0
  -33.5041   22.8416    8.5748 H   0  0  0  0  0  0  0  0  0  0  0  0
  -32.4061   25.0869    9.7563 H   0  0  0  0  0  0  0  0  0  0  0  0
  -30.9818   24.0832    9.2064 H   0  0  0  0  0  0  0  0  0  0  0  0
  -32.8173   25.7082    7.6431 H   0  0  0  0  0  0  0  0  0  0  0  0
  -31.2637   24.9056    7.1784 H   0  0  0  0  0  0  0  0  0  0  0  0
  -32.5433   23.6150    5.8348 H   0  0  0  0  0  0  0  0  0  0  0  0
  -33.0126   22.7703    7.3626 H   0  0  0  0  0  0  0  0  0  0  0  0
  -34.6075   25.1591    7.0508 H   0  0  0  0  0  0  0  0  0  0  0  0
  -34.6741   24.1385    5.5356 H   0  0  0  0  0  0  0  0  0  0  0  0
  -35.0246   22.7825    8.1688 H   0  0  0  0  0  0  0  0  0  0  0  0
  -36.3807   23.8295    7.4809 H   0  0  0  0  0  0  0  0  0  0  0  0
  -36.9708   21.7298    6.7808 H   0  0  0  0  0  0  0  0  0  0  0  0
  -36.0459   22.4289    5.3679 H   0  0  0  0  0  0  0  0  0  0  0  0
  -34.2823   20.9855    7.1676 H   0  0  0  0  0  0  0  0  0  0  0  0
  -35.6451   19.9431    6.5889 H   0  0  0  0  0  0  0  0  0  0  0  0
  -34.8015   19.8142    4.5256 H   0  0  0  0  0  0  0  0  0  0  0  0
  -34.5234   21.6211    4.4800 H   0  0  0  0  0  0  0  0  0  0  0  0
  -32.5623   19.6839    4.4234 H   0  0  0  0  0  0  0  0  0  0  0  0
  -32.3813   21.4460    4.9015 H   0  0  0  0  0  0  0  0  0  0  0  0
  -31.5628   20.7828    6.8217 H   0  0  0  0  0  0  0  0  0  0  0  0
  -33.2246   20.0974    7.1855 H   0  0  0  0  0  0  0  0  0  0  0  0
  1  2  1  0
  2  3  1  0
  3  4  1  0
  4  5  1  0
  5  6  1  0
  6  7  1  0
  7  8  1  0
  8  9  1  0
  9 10  1  0
 10 11  1  0
 11 12  1  0
 12 13  1  0
 13 14  1  0
 14 15  1  0
 15 16  1  0
 16 17  2  0
 16 18  1  0
  1 19  1  0
  1 20  1  0
  1 21  1  0
  2 22  1  0
  2 23  1  0
  3 24  1  0
  3 25  1  0
  4 26  1  0
  4 27  1  0
  5 28  1  0
  5 29  1  0
  6 30  1  0
  6 31  1  0
  7 32  1  0
  7 33  1  0
  8 34  1  0
  8 35  1  0
  9 36  1  0
  9 37  1  0
 10 38  1  0
 10 39  1  0
 11 40  1  0
 11 41  1  0
 12 42  1  0
 12 43  1  0
 13 44  1  0
 13 45  1  0
 14 46  1  0
 14 47  1  0
 15 48  1  0
 15 49  1  0
M  CHG  1  18  -1
M  END
>  <meeko>  (15) 
{"is_sidechain": [false], "free_energy": -5.51, "intermolecular_energy": -10.537, "internal_energy": -1.929}

$$$$
palmitate_Nlobe_run03
     RDKit          3D

 49 48  0  0  0  0  0  0  0  0999 V2000
  -34.4680   21.5050   10.7130 C   0  0  0  0  0  0  0  0  0  0  0  0
  -34.9210   20.6020    9.5770 C   0  0  0  0  0  0  0  0  0  0  0  0
  -33.9160   19.4990    9.2320 C   0  0  0  0  0  0  0  0  0  0  0  0
  -33.7960   19.2380    7.7270 C   0  0  0  0  0  0  0  0  0  0  0  0
  -32.4960   19.7730    7.1150 C   0  0  0  0  0  0  0  0  0  0  0  0
  -32.6480   20.9170    6.1090 C   0  0  0  0  0  0  0  0  0  0  0  0
  -31.8840   22.1820    6.5020 C   0  0  0  0  0  0  0  0  0  0  0  0
  -32.2390   22.6240    7.9240 C   0  0  0  0  0  0  0  0  0  0  0  0
  -32.9580   23.9750    7.9170 C   0  0  0  0  0  0  0  0  0  0  0  0
  -34.1700   24.0200    6.9810 C   0  0  0  0  0  0  0  0  0  0  0  0
  -35.5370   24.1630    7.6610 C   0  0  0  0  0  0  0  0  0  0  0  0
  -36.3790   22.8850    7.6170 C   0  0  0  0  0  0  0  0  0  0  0  0
  -36.0300   22.0290    6.3990 C   0  0  0  0  0  0  0  0  0  0  0  0
  -36.9100   20.7830    6.2470 C   0  0  0  0  0  0  0  0  0  0  0  0
  -37.9900   20.6350    7.3190 C   0  0  0  0  0  0  0  0  0  0  0  0
  -39.3950   20.5350    6.7780 C   0  0  0  0  0  0  0  0  0  0  0  0
  -40.3680   20.2350    7.4570 O   0  0  0  0  0  0  0  0  0  0  0  0
  -39.4660   20.7810    5.4470 O   0  0  0  0  0  0  0  0  0  0  0  0
  -34.7062   21.0301   11.6762 H   0  0  0  0  0  0  0  0  0  0  0  0
  -33.3822   21.6664   10.6424 H   0  0  0  0  0  0  0  0  0  0  0  0
  -34.9878   22.4719   10.6424 H   0  0  0  0  0  0  0  0  0  0  0  0
  -35.8708   20.1288    9.8667 H   0  0  0  0  0  0  0  0  0  0  0  0
  -35.0242   21.2351    8.6834 H   0  0  0  0  0  0  0  0  0  0  0  0
  -32.9281   19.7945    9.6150 H   0  0  0  0  0  0  0  0  0  0  0  0
  -34.2794   18.5702    9.6959 H   0  0  0  0  0  0  0  0  0  0  0  0
  -33.8395   18.1520    7.5575 H   0  0  0  0  0  0  0  0  0  0  0  0
  -34.6261   19.7701    7.2393 H   0  0  0  0  0  0  0  0  0  0  0  0
  -31.8592   20.1307    7.9375 H   0  0  0  0  0  0  0  0  0  0  0  0
  -32.0687   18.9336    6.5467 H   0  0  0  0  0  0  0  0  0  0  0  0
  -32.2744   20.5740    5.1329 H   0  0  0  0  0  0  0  0  0  0  0  0
  -33.7155   21.1807    6.0786 H   0  0  0  0  0  0  0  0  0  0  0  0
  -30.8040   21.9802    6.4481 H   0  0  0  0  0  0  0  0  0  0  0  0
  -32.1633   22.9876    5.8070 H   0  0  0  0  0  0  0  0  0  0  0  0
  -32.8960   21.8696    8.3814 H   0  0  0  0  0  0  0  0  0  0  0  0
  -31.3081   22.7263    8.5010 H   0  0  0  0  0  0  0  0  0  0  0  0
  -33.3001   24.1921    8.9396 H   0  0  0  0  0  0  0  0  0  0  0  0
  -32.2385   24.7214    7.5492 H   0  0  0  0  0  0  0  0  0  0  0  0
  -34.0401   24.8759    6.3024 H   0  0  0  0  0  0  0  0  0  0  0  0
  -34.1906   23.0441    6.4739 H   0  0  0  0  0  0  0  0  0  0  0  0
  -35.3749   24.4368    8.7140 H   0  0  0  0  0  0  0  0  0  0  0  0
  -36.0930   24.9353    7.1093 H   0  0  0  0  0  0  0  0  0  0  0  0
  -36.1916   22.3013    8.5303 H   0  0  0  0  0  0  0  0  0  0  0  0
  -37.4389   23.1708    7.5472 H   0  0  0  0  0  0  0  0  0  0  0  0
  -36.1446   22.6470    5.4962 H   0  0  0  0  0  0  0  0  0  0  0  0
  -34.9973   21.6772    6.5394 H   0  0  0  0  0  0  0  0  0  0  0  0
  -37.4043   20.8291    5.2654 H   0  0  0  0  0  0  0  0  0  0  0  0
  -36.2434   19.9144    6.3525 H   0  0  0  0  0  0  0  0  0  0  0  0
  -37.7782   19.7236    7.8973 H   0  0  0  0  0  0  0  0  0  0  0  0
  -37.9531   21.5487    7.9304 H   0  0  0  0  0  0  0  0  0  0  0  0
  1  2  1  0
  2  3  1  0
  3  4  1  0
  4  5  1  0
  5  6  1  0
  6  7  1  0
  7  8  1  0
  8  9  1  0
  9 10  1  0
 10 11  1  0
 11 12  1  0
 12 13  1  0
 13 14  1  0
 14 15  1  0
 15 16  1  0
 16 17  2  0
 16 18  1  0
  1 19  1  0
  1 20  1  0
  1 21  1  0
  2 22  1  0
  2 23  1  0
  3 24  1  0
  3 25  1  0
  4 26  1  0
  4 27  1  0
  5 28  1  0
  5 29  1  0
  6 30  1  0
  6 31  1  0
  7 32  1  0
  7 33  1  0
  8 34  1  0
  8 35  1  0
  9 36  1  0
  9 37  1  0
 10 38  1  0
 10 39  1  0
 11 40  1  0
 11 41  1  0
 12 42  1  0
 12 43  1  0
 13 44  1  0
 13 45  1  0
 14 46  1  0
 14 47  1  0
 15 48  1  0
 15 49  1  0
M  CHG  1  18  -1
M  END
>  <meeko>  (16) 
{"is_sidechain": [false], "free_energy": -5.483, "intermolecular_energy": -10.008, "internal_energy": -2.409}

$$$$
palmitate_Nlobe_run03
     RDKit          3D

 49 48  0  0  0  0  0  0  0  0999 V2000
  -39.6810   22.2640    7.2590 C   0  0  0  0  0  0  0  0  0  0  0  0
  -39.5590   20.8470    7.7950 C   0  0  0  0  0  0  0  0  0  0  0  0
  -38.8870   19.8770    6.8190 C   0  0  0  0  0  0  0  0  0  0  0  0
  -38.1670   20.5810    5.6650 C   0  0  0  0  0  0  0  0  0  0  0  0
  -36.6830   20.8500    5.9440 C   0  0  0  0  0  0  0  0  0  0  0  0
  -36.1810   20.4660    7.3390 C   0  0  0  0  0  0  0  0  0  0  0  0
  -35.6250   21.6490    8.1340 C   0  0  0  0  0  0  0  0  0  0  0  0
  -35.9340   22.9770    7.4400 C   0  0  0  0  0  0  0  0  0  0  0  0
  -34.9700   24.0740    7.8990 C   0  0  0  0  0  0  0  0  0  0  0  0
  -33.9640   24.4960    6.8230 C   0  0  0  0  0  0  0  0  0  0  0  0
  -32.4860   24.2760    7.1650 C   0  0  0  0  0  0  0  0  0  0  0  0
  -32.0820   22.8000    7.2130 C   0  0  0  0  0  0  0  0  0  0  0  0
  -32.1280   22.1650    5.8220 C   0  0  0  0  0  0  0  0  0  0  0  0
  -32.7950   20.7850    5.7950 C   0  0  0  0  0  0  0  0  0  0  0  0
  -32.4680   19.8980    6.9960 C   0  0  0  0  0  0  0  0  0  0  0  0
  -31.8610   18.5640    6.6400 C   0  0  0  0  0  0  0  0  0  0  0  0
  -31.9110   18.0680    5.5220 O   0  0  0  0  0  0  0  0  0  0  0  0
  -31.2800   17.9500    7.6990 O   0  0  0  0  0  0  0  0  0  0  0  0
  -39.7418   22.9702    8.1002 H   0  0  0  0  0  0  0  0  0  0  0  0
  -38.7999   22.5007    6.6445 H   0  0  0  0  0  0  0  0  0  0  0  0
  -40.5896   22.3466    6.6445 H   0  0  0  0  0  0  0  0  0  0  0  0
  -38.9655   20.8755    8.7207 H   0  0  0  0  0  0  0  0  0  0  0  0
  -40.5812   20.4774    7.9640 H   0  0  0  0  0  0  0  0  0  0  0  0
  -38.1519   19.2761    7.3745 H   0  0  0  0  0  0  0  0  0  0  0  0
  -39.6809   19.2565    6.3777 H   0  0  0  0  0  0  0  0  0  0  0  0
  -38.2437   19.9480    4.7687 H   0  0  0  0  0  0  0  0  0  0  0  0
  -38.6531   21.5582    5.5280 H   0  0  0  0  0  0  0  0  0  0  0  0
  -36.0942   20.2841    5.2070 H   0  0  0  0  0  0  0  0  0  0  0  0
  -36.5618   21.9412    5.8755 H   0  0  0  0  0  0  0  0  0  0  0  0
  -37.0190   20.0304    7.9030 H   0  0  0  0  0  0  0  0  0  0  0  0
  -35.3556   19.7521    7.2009 H   0  0  0  0  0  0  0  0  0  0  0  0
  -36.0797   21.6534    9.1356 H   0  0  0  0  0  0  0  0  0  0  0  0
  -34.5328   21.5387    8.2039 H   0  0  0  0  0  0  0  0  0  0  0  0
  -35.8372   22.8453    6.3522 H   0  0  0  0  0  0  0  0  0  0  0  0
  -36.9587   23.2791    7.7023 H   0  0  0  0  0  0  0  0  0  0  0  0
  -35.5597   24.9562    8.1889 H   0  0  0  0  0  0  0  0  0  0  0  0
  -34.3906   23.6636    8.7392 H   0  0  0  0  0  0  0  0  0  0  0  0
  -34.1874   23.9244    5.9101 H   0  0  0  0  0  0  0  0  0  0  0  0
  -34.0852   25.5837    6.7124 H   0  0  0  0  0  0  0  0  0  0  0  0
  -31.8737   24.7797    6.4025 H   0  0  0  0  0  0  0  0  0  0  0  0
  -32.3226   24.6885    8.1716 H   0  0  0  0  0  0  0  0  0  0  0  0
  -31.0588   22.7214    7.6090 H   0  0  0  0  0  0  0  0  0  0  0  0
  -32.7927   22.2667    7.8615 H   0  0  0  0  0  0  0  0  0  0  0  0
  -32.6887   22.8346    5.1532 H   0  0  0  0  0  0  0  0  0  0  0  0
  -31.0860   22.0242    5.4989 H   0  0  0  0  0  0  0  0  0  0  0  0
  -33.8848   20.9310    5.7626 H   0  0  0  0  0  0  0  0  0  0  0  0
  -32.4033   20.2661    4.9077 H   0  0  0  0  0  0  0  0  0  0  0  0
  -31.7577   20.4383    7.6391 H   0  0  0  0  0  0  0  0  0  0  0  0
  -33.4237   19.6838    7.4968 H   0  0  0  0  0  0  0  0  0  0  0  0
  1  2  1  0
  2  3  1  0
  3  4  1  0
  4  5  1  0
  5  6  1  0
  6  7  1  0
  7  8  1  0
  8  9  1  0
  9 10  1  0
 10 11  1  0
 11 12  1  0
 12 13  1  0
 13 14  1  0
 14 15  1  0
 15 16  1  0
 16 17  2  0
 16 18  1  0
  1 19  1  0
  1 20  1  0
  1 21  1  0
  2 22  1  0
  2 23  1  0
  3 24  1  0
  3 25  1  0
  4 26  1  0
  4 27  1  0
  5 28  1  0
  5 29  1  0
  6 30  1  0
  6 31  1  0
  7 32  1  0
  7 33  1  0
  8 34  1  0
  8 35  1  0
  9 36  1  0
  9 37  1  0
 10 38  1  0
 10 39  1  0
 11 40  1  0
 11 41  1  0
 12 42  1  0
 12 43  1  0
 13 44  1  0
 13 45  1  0
 14 46  1  0
 14 47  1  0
 15 48  1  0
 15 49  1  0
M  CHG  1  18  -1
M  END
>  <meeko>  (17) 
{"is_sidechain": [false], "free_energy": -5.456, "intermolecular_energy": -10.41, "internal_energy": -1.957}

$$$$
palmitate_Nlobe_run03
     RDKit          3D

 49 48  0  0  0  0  0  0  0  0999 V2000
  -33.1690   20.5590    4.2290 C   0  0  0  0  0  0  0  0  0  0  0  0
  -33.4220   19.9980    5.6200 C   0  0  0  0  0  0  0  0  0  0  0  0
  -32.2640   20.2290    6.5950 C   0  0  0  0  0  0  0  0  0  0  0  0
  -32.4030   19.4370    7.8980 C   0  0  0  0  0  0  0  0  0  0  0  0
  -33.8580   19.2090    8.3230 C   0  0  0  0  0  0  0  0  0  0  0  0
  -34.1680   19.4360    9.8060 C   0  0  0  0  0  0  0  0  0  0  0  0
  -35.0380   20.6670   10.0660 C   0  0  0  0  0  0  0  0  0  0  0  0
  -34.3030   21.6930   10.9320 C   0  0  0  0  0  0  0  0  0  0  0  0
  -34.2060   23.0440   10.2200 C   0  0  0  0  0  0  0  0  0  0  0  0
  -33.1990   23.0590    9.0660 C   0  0  0  0  0  0  0  0  0  0  0  0
  -33.7610   23.4430    7.6920 C   0  0  0  0  0  0  0  0  0  0  0  0
  -35.2880   23.5580    7.6660 C   0  0  0  0  0  0  0  0  0  0  0  0
  -35.9200   22.4050    6.8850 C   0  0  0  0  0  0  0  0  0  0  0  0
  -37.3740   22.1170    7.2780 C   0  0  0  0  0  0  0  0  0  0  0  0
  -37.7820   20.6480    7.1660 C   0  0  0  0  0  0  0  0  0  0  0  0
  -39.2700   20.4200    7.0720 C   0  0  0  0  0  0  0  0  0  0  0  0
  -40.0240   20.4210    8.0360 O   0  0  0  0  0  0  0  0  0  0  0  0
  -39.6870   20.1790    5.8050 O   0  0  0  0  0  0  0  0  0  0  0  0
  -32.7181   21.5588    4.3133 H   0  0  0  0  0  0  0  0  0  0  0  0
  -32.4842   19.8927    3.6839 H   0  0  0  0  0  0  0  0  0  0  0  0
  -34.1217   20.6312    3.6839 H   0  0  0  0  0  0  0  0  0  0  0  0
  -34.3227   20.4783    6.0300 H   0  0  0  0  0  0  0  0  0  0  0  0
  -33.5401   18.9097    5.5120 H   0  0  0  0  0  0  0  0  0  0  0  0
  -31.3274   19.9291    6.1022 H   0  0  0  0  0  0  0  0  0  0  0  0
  -32.2691   21.2965    6.8602 H   0  0  0  0  0  0  0  0  0  0  0  0
  -31.9222   18.4569    7.7627 H   0  0  0  0  0  0  0  0  0  0  0  0
  -31.9239   20.0310    8.6902 H   0  0  0  0  0  0  0  0  0  0  0  0
  -34.4905   19.8932    7.7384 H   0  0  0  0  0  0  0  0  0  0  0  0
  -34.0573   18.1431    8.1382 H   0  0  0  0  0  0  0  0  0  0  0  0
  -34.6941   18.5501   10.1913 H   0  0  0  0  0  0  0  0  0  0  0  0
  -33.2077   19.6051   10.3151 H   0  0  0  0  0  0  0  0  0  0  0  0
  -35.2990   21.1314    9.1036 H   0  0  0  0  0  0  0  0  0  0  0  0
  -35.9440   20.3458   10.6008 H   0  0  0  0  0  0  0  0  0  0  0  0
  -34.8500   21.8233   11.8774 H   0  0  0  0  0  0  0  0  0  0  0  0
  -33.2845   21.3242   11.1232 H   0  0  0  0  0  0  0  0  0  0  0  0
  -35.1983   23.2975    9.8187 H   0  0  0  0  0  0  0  0  0  0  0  0
  -33.8554   23.7754   10.9631 H   0  0  0  0  0  0  0  0  0  0  0  0
  -32.4068   23.7789    9.3193 H   0  0  0  0  0  0  0  0  0  0  0  0
  -32.8470   22.0218    8.9645 H   0  0  0  0  0  0  0  0  0  0  0  0
  -33.3339   24.4138    7.4002 H   0  0  0  0  0  0  0  0  0  0  0  0
  -33.4855   22.6388    6.9939 H   0  0  0  0  0  0  0  0  0  0  0  0
  -35.6661   23.5406    8.6988 H   0  0  0  0  0  0  0  0  0  0  0  0
  -35.5562   24.5018    7.1686 H   0  0  0  0  0  0  0  0  0  0  0  0
  -35.8929   22.6551    5.8142 H   0  0  0  0  0  0  0  0  0  0  0  0
  -35.3388   21.5012    7.1202 H   0  0  0  0  0  0  0  0  0  0  0  0
  -37.5173   22.4348    8.3213 H   0  0  0  0  0  0  0  0  0  0  0  0
  -38.0055   22.6720    6.5687 H   0  0  0  0  0  0  0  0  0  0  0  0
  -37.3120   20.2282    6.2644 H   0  0  0  0  0  0  0  0  0  0  0  0
  -37.4472   20.1577    8.0920 H   0  0  0  0  0  0  0  0  0  0  0  0
  1  2  1  0
  2  3  1  0
  3  4  1  0
  4  5  1  0
  5  6  1  0
  6  7  1  0
  7  8  1  0
  8  9  1  0
  9 10  1  0
 10 11  1  0
 11 12  1  0
 12 13  1  0
 13 14  1  0
 14 15  1  0
 15 16  1  0
 16 17  2  0
 16 18  1  0
  1 19  1  0
  1 20  1  0
  1 21  1  0
  2 22  1  0
  2 23  1  0
  3 24  1  0
  3 25  1  0
  4 26  1  0
  4 27  1  0
  5 28  1  0
  5 29  1  0
  6 30  1  0
  6 31  1  0
  7 32  1  0
  7 33  1  0
  8 34  1  0
  8 35  1  0
  9 36  1  0
  9 37  1  0
 10 38  1  0
 10 39  1  0
 11 40  1  0
 11 41  1  0
 12 42  1  0
 12 43  1  0
 13 44  1  0
 13 45  1  0
 14 46  1  0
 14 47  1  0
 15 48  1  0
 15 49  1  0
M  CHG  1  18  -1
M  END
>  <meeko>  (18) 
{"is_sidechain": [false], "free_energy": -5.445, "intermolecular_energy": -10.008, "internal_energy": -2.34}

$$$$
palmitate_Nlobe_run03
     RDKit          3D

 49 48  0  0  0  0  0  0  0  0999 V2000
  -36.6370   20.3900    4.4500 C   0  0  0  0  0  0  0  0  0  0  0  0
  -37.8010   20.8190    5.3290 C   0  0  0  0  0  0  0  0  0  0  0  0
  -37.6020   20.4950    6.8120 C   0  0  0  0  0  0  0  0  0  0  0  0
  -36.2970   21.0570    7.3840 C   0  0  0  0  0  0  0  0  0  0  0  0
  -36.1320   22.5650    7.1650 C   0  0  0  0  0  0  0  0  0  0  0  0
  -35.3260   23.3140    8.2310 C   0  0  0  0  0  0  0  0  0  0  0  0
  -34.6130   22.3900    9.2190 C   0  0  0  0  0  0  0  0  0  0  0  0
  -33.1910   22.8780    9.5070 C   0  0  0  0  0  0  0  0  0  0  0  0
  -32.5210   23.4020    8.2350 C   0  0  0  0  0  0  0  0  0  0  0  0
  -31.8590   22.3060    7.3930 C   0  0  0  0  0  0  0  0  0  0  0  0
  -32.1460   22.3530    5.8880 C   0  0  0  0  0  0  0  0  0  0  0  0
  -33.2080   21.3480    5.4350 C   0  0  0  0  0  0  0  0  0  0  0  0
  -32.6350   20.3470    4.4300 C   0  0  0  0  0  0  0  0  0  0  0  0
  -32.6220   18.9000    4.9400 C   0  0  0  0  0  0  0  0  0  0  0  0
  -33.0370   18.7390    6.4020 C   0  0  0  0  0  0  0  0  0  0  0  0
  -31.9080   18.3710    7.3330 C   0  0  0  0  0  0  0  0  0  0  0  0
  -31.9070   18.6130    8.5330 O   0  0  0  0  0  0  0  0  0  0  0  0
  -30.8740   17.7710    6.6950 O   0  0  0  0  0  0  0  0  0  0  0  0
  -35.7937   20.0792    5.0842 H   0  0  0  0  0  0  0  0  0  0  0  0
  -36.9482   19.5475    3.8149 H   0  0  0  0  0  0  0  0  0  0  0  0
  -36.3270   21.2329    3.8149 H   0  0  0  0  0  0  0  0  0  0  0  0
  -37.9327   21.9062    5.2253 H   0  0  0  0  0  0  0  0  0  0  0  0
  -38.6840   20.2562    4.9918 H   0  0  0  0  0  0  0  0  0  0  0  0
  -38.4435   20.9204    7.3785 H   0  0  0  0  0  0  0  0  0  0  0  0
  -37.5532   19.3999    6.9030 H   0  0  0  0  0  0  0  0  0  0  0  0
  -36.2770   20.8582    8.4657 H   0  0  0  0  0  0  0  0  0  0  0  0
  -35.4712   20.5610    6.8529 H   0  0  0  0  0  0  0  0  0  0  0  0
  -35.6289   22.7116    6.1979 H   0  0  0  0  0  0  0  0  0  0  0  0
  -37.1478   22.9845    7.2120 H   0  0  0  0  0  0  0  0  0  0  0  0
  -34.5699   23.9323    7.7250 H   0  0  0  0  0  0  0  0  0  0  0  0
  -36.0396   23.9179    8.8107 H   0  0  0  0  0  0  0  0  0  0  0  0
  -35.1812   22.3648   10.1606 H   0  0  0  0  0  0  0  0  0  0  0  0
  -34.5529   21.3855    8.7748 H   0  0  0  0  0  0  0  0  0  0  0  0
  -33.2325   23.6873   10.2509 H   0  0  0  0  0  0  0  0  0  0  0  0
  -32.6016   22.0317    9.8895 H   0  0  0  0  0  0  0  0  0  0  0  0
  -33.2849   23.8995    7.6194 H   0  0  0  0  0  0  0  0  0  0  0  0
  -31.7239   24.0910    8.5511 H   0  0  0  0  0  0  0  0  0  0  0  0
  -30.7706   22.3859    7.5312 H   0  0  0  0  0  0  0  0  0  0  0  0
  -32.2880   21.3575    7.7484 H   0  0  0  0  0  0  0  0  0  0  0  0
  -32.4929   23.3649    5.6316 H   0  0  0  0  0  0  0  0  0  0  0  0
  -31.2108   22.0883    5.3729 H   0  0  0  0  0  0  0  0  0  0  0  0
  -33.5805   20.8003    6.3132 H   0  0  0  0  0  0  0  0  0  0  0  0
  -34.0232   21.9017    4.9464 H   0  0  0  0  0  0  0  0  0  0  0  0
  -33.2434   20.3871    3.5145 H   0  0  0  0  0  0  0  0  0  0  0  0
  -31.5883   20.6343    4.2512 H   0  0  0  0  0  0  0  0  0  0  0  0
  -33.3137   18.3110    4.3198 H   0  0  0  0  0  0  0  0  0  0  0  0
  -31.5803   18.5535    4.8708 H   0  0  0  0  0  0  0  0  0  0  0  0
  -33.4686   19.6912    6.7441 H   0  0  0  0  0  0  0  0  0  0  0  0
  -33.7553   17.9065    6.4348 H   0  0  0  0  0  0  0  0  0  0  0  0
  1  2  1  0
  2  3  1  0
  3  4  1  0
  4  5  1  0
  5  6  1  0
  6  7  1  0
  7  8  1  0
  8  9  1  0
  9 10  1  0
 10 11  1  0
 11 12  1  0
 12 13  1  0
 13 14  1  0
 14 15  1  0
 15 16  1  0
 16 17  2  0
 16 18  1  0
  1 19  1  0
  1 20  1  0
  1 21  1  0
  2 22  1  0
  2 23  1  0
  3 24  1  0
  3 25  1  0
  4 26  1  0
  4 27  1  0
  5 28  1  0
  5 29  1  0
  6 30  1  0
  6 31  1  0
  7 32  1  0
  7 33  1  0
  8 34  1  0
  8 35  1  0
  9 36  1  0
  9 37  1  0
 10 38  1  0
 10 39  1  0
 11 40  1  0
 11 41  1  0
 12 42  1  0
 12 43  1  0
 13 44  1  0
 13 45  1  0
 14 46  1  0
 14 47  1  0
 15 48  1  0
 15 49  1  0
M  CHG  1  18  -1
M  END
>  <meeko>  (19) 
{"is_sidechain": [false], "free_energy": -5.423, "intermolecular_energy": -10.417, "internal_energy": -1.892}

$$$$
palmitate_Nlobe_run03
     RDKit          3D

 49 48  0  0  0  0  0  0  0  0999 V2000
  -34.0780   18.8750    8.2260 C   0  0  0  0  0  0  0  0  0  0  0  0
  -32.7120   19.5390    8.1640 C   0  0  0  0  0  0  0  0  0  0  0  0
  -32.2390   19.8380    6.7380 C   0  0  0  0  0  0  0  0  0  0  0  0
  -33.3290   20.4490    5.8540 C   0  0  0  0  0  0  0  0  0  0  0  0
  -33.3310   21.9830    5.8580 C   0  0  0  0  0  0  0  0  0  0  0  0
  -32.1180   22.6540    6.5080 C   0  0  0  0  0  0  0  0  0  0  0  0
  -32.3020   24.1550    6.7390 C   0  0  0  0  0  0  0  0  0  0  0  0
  -32.3710   24.4820    8.2330 C   0  0  0  0  0  0  0  0  0  0  0  0
  -32.4300   23.2030    9.0730 C   0  0  0  0  0  0  0  0  0  0  0  0
  -33.7240   23.0570    9.8790 C   0  0  0  0  0  0  0  0  0  0  0  0
  -34.8950   22.3870    9.1500 C   0  0  0  0  0  0  0  0  0  0  0  0
  -35.7280   23.3580    8.3080 C   0  0  0  0  0  0  0  0  0  0  0  0
  -36.5860   22.6130    7.2840 C   0  0  0  0  0  0  0  0  0  0  0  0
  -36.7580   21.1210    7.5930 C   0  0  0  0  0  0  0  0  0  0  0  0
  -37.9370   20.4580    6.8800 C   0  0  0  0  0  0  0  0  0  0  0  0
  -39.2800   21.0640    7.2010 C   0  0  0  0  0  0  0  0  0  0  0  0
  -39.7800   21.9880    6.5740 O   0  0  0  0  0  0  0  0  0  0  0  0
  -39.8670   20.4980    8.2840 O   0  0  0  0  0  0  0  0  0  0  0  0
  -34.3694   18.7333    9.2772 H   0  0  0  0  0  0  0  0  0  0  0  0
  -34.8192   19.5134    7.7228 H   0  0  0  0  0  0  0  0  0  0  0  0
  -34.0339   17.8978    7.7228 H   0  0  0  0  0  0  0  0  0  0  0  0
  -32.7606   20.4869    8.7201 H   0  0  0  0  0  0  0  0  0  0  0  0
  -31.9905   18.8334    8.6016 H   0  0  0  0  0  0  0  0  0  0  0  0
  -31.3961   20.5428    6.7903 H   0  0  0  0  0  0  0  0  0  0  0  0
  -31.9500   18.8792    6.2829 H   0  0  0  0  0  0  0  0  0  0  0  0
  -33.1740   20.1036    4.8212 H   0  0  0  0  0  0  0  0  0  0  0  0
  -34.2972   20.1229    6.2618 H   0  0  0  0  0  0  0  0  0  0  0  0
  -33.3834   22.3222    4.8129 H   0  0  0  0  0  0  0  0  0  0  0  0
  -34.1961   22.2769    6.4705 H   0  0  0  0  0  0  0  0  0  0  0  0
  -31.9326   22.1724    7.4794 H   0  0  0  0  0  0  0  0  0  0  0  0
  -31.2721   22.5345    5.8150 H   0  0  0  0  0  0  0  0  0  0  0  0
  -31.4527   24.6932    6.2930 H   0  0  0  0  0  0  0  0  0  0  0  0
  -33.2477   24.4656    6.2709 H   0  0  0  0  0  0  0  0  0  0  0  0
  -31.4777   25.0577    8.5168 H   0  0  0  0  0  0  0  0  0  0  0  0
  -33.2830   25.0674    8.4217 H   0  0  0  0  0  0  0  0  0  0  0  0
  -32.3418   22.3392    8.3976 H   0  0  0  0  0  0  0  0  0  0  0  0
  -31.6035   23.2546    9.7970 H   0  0  0  0  0  0  0  0  0  0  0  0
  -33.4978   22.4591   10.7742 H   0  0  0  0  0  0  0  0  0  0  0  0
  -34.0565   24.0827   10.0967 H   0  0  0  0  0  0  0  0  0  0  0  0
  -34.4917   21.6083    8.4859 H   0  0  0  0  0  0  0  0  0  0  0  0
  -35.5619   21.9741    9.9212 H   0  0  0  0  0  0  0  0  0  0  0  0
  -36.3860   23.9357    8.9739 H   0  0  0  0  0  0  0  0  0  0  0  0
  -35.0407   24.0237    7.7654 H   0  0  0  0  0  0  0  0  0  0  0  0
  -37.5818   23.0797    7.2600 H   0  0  0  0  0  0  0  0  0  0  0  0
  -36.0662   22.6832    6.3171 H   0  0  0  0  0  0  0  0  0  0  0  0
  -35.8373   20.5995    7.2925 H   0  0  0  0  0  0  0  0  0  0  0  0
  -36.9621   21.0462    8.6713 H   0  0  0  0  0  0  0  0  0  0  0  0
  -37.7731   20.5397    5.7953 H   0  0  0  0  0  0  0  0  0  0  0  0
  -37.9707   19.4162    7.2314 H   0  0  0  0  0  0  0  0  0  0  0  0
  1  2  1  0
  2  3  1  0
  3  4  1  0
  4  5  1  0
  5  6  1  0
  6  7  1  0
  7  8  1  0
  8  9  1  0
  9 10  1  0
 10 11  1  0
 11 12  1  0
 12 13  1  0
 13 14  1  0
 14 15  1  0
 15 16  1  0
 16 17  2  0
 16 18  1  0
  1 19  1  0
  1 20  1  0
  1 21  1  0
  2 22  1  0
  2 23  1  0
  3 24  1  0
  3 25  1  0
  4 26  1  0
  4 27  1  0
  5 28  1  0
  5 29  1  0
  6 30  1  0
  6 31  1  0
  7 32  1  0
  7 33  1  0
  8 34  1  0
  8 35  1  0
  9 36  1  0
  9 37  1  0
 10 38  1  0
 10 39  1  0
 11 40  1  0
 11 41  1  0
 12 42  1  0
 12 43  1  0
 13 44  1  0
 13 45  1  0
 14 46  1  0
 14 47  1  0
 15 48  1  0
 15 49  1  0
M  CHG  1  18  -1
M  END
>  <meeko>  (20) 
{"is_sidechain": [false], "free_energy": -5.405, "intermolecular_energy": -10.002, "internal_energy": -2.274}

$$$$
