palmitate_Nlobe_run01
     RDKit          3D

 49 48  0  0  0  0  0  0  0  0999 V2000
  -34.2880   19.0430   11.6390 C   0  0  0  0  0  0  0  0  0  0  0  0
  -34.5390   20.5100   11.3310 C   0  0  0  0  0  0  0  0  0  0  0  0
  -34.8140   20.7880    9.8500 C   0  0  0  0  0  0  0  0  0  0  0  0
  -34.9310   22.2800    9.5260 C   0  0  0  0  0  0  0  0  0  0  0  0
  -35.6350   22.5630    8.1930 C   0  0  0  0  0  0  0  0  0  0  0  0
  -35.4970   23.9890    7.6510 C   0  0  0  0  0  0  0  0  0  0  0  0
  -34.3310   24.1610    6.6760 C   0  0  0  0  0  0  0  0  0  0  0  0
  -33.2330   25.0420    7.2760 C   0  0  0  0  0  0  0  0  0  0  0  0
  -31.8640   24.3670    7.1640 C   0  0  0  0  0  0  0  0  0  0  0  0
  -31.9390   22.8900    6.7630 C   0  0  0  0  0  0  0  0  0  0  0  0
  -31.7980   21.8780    7.9060 C   0  0  0  0  0  0  0  0  0  0  0  0
  -31.2750   20.5120    7.4530 C   0  0  0  0  0  0  0  0  0  0  0  0
  -32.4060   19.4880    7.3510 C   0  0  0  0  0  0  0  0  0  0  0  0
  -33.0120   19.3750    5.9470 C   0  0  0  0  0  0  0  0  0  0  0  0
  -34.3040   20.1680    5.7470 C   0  0  0  0  0  0  0  0  0  0  0  0
  -34.3620   20.9510    4.4590 C   0  0  0  0  0  0  0  0  0  0  0  0
  -33.4520   20.9880    3.6410 O   0  0  0  0  0  0  0  0  0  0  0  0
  -35.5190   21.6430    4.3150 O   0  0  0  0  0  0  0  0  0  0  0  0
  -34.2629   18.8962   12.7289 H   0  0  0  0  0  0  0  0  0  0  0  0
  -35.0950   18.4340   11.2055 H   0  0  0  0  0  0  0  0  0  0  0  0
  -33.3244   18.7370   11.2055 H   0  0  0  0  0  0  0  0  0  0  0  0
  -35.4095   20.8438   11.9148 H   0  0  0  0  0  0  0  0  0  0  0  0
  -33.6221   21.0566   11.5967 H   0  0  0  0  0  0  0  0  0  0  0  0
  -33.9900   20.3653    9.2564 H   0  0  0  0  0  0  0  0  0  0  0  0
  -35.7810   20.3244    9.6053 H   0  0  0  0  0  0  0  0  0  0  0  0
  -35.5005   22.7675   10.3310 H   0  0  0  0  0  0  0  0  0  0  0  0
  -33.9075   22.6741    9.4415 H   0  0  0  0  0  0  0  0  0  0  0  0
  -35.2208   21.8754    7.4409 H   0  0  0  0  0  0  0  0  0  0  0  0
  -36.7083   22.4223    8.3884 H   0  0  0  0  0  0  0  0  0  0  0  0
  -36.4286   24.2552    7.1301 H   0  0  0  0  0  0  0  0  0  0  0  0
  -35.2984   24.6445    8.5118 H   0  0  0  0  0  0  0  0  0  0  0  0
  -33.9098   23.1720    6.4424 H   0  0  0  0  0  0  0  0  0  0  0  0
  -34.7083   24.6472    5.7643 H   0  0  0  0  0  0  0  0  0  0  0  0
  -33.2064   26.0005    6.7369 H   0  0  0  0  0  0  0  0  0  0  0  0
  -33.4572   25.2041    8.3407 H   0  0  0  0  0  0  0  0  0  0  0  0
  -31.2728   24.9032    6.4070 H   0  0  0  0  0  0  0  0  0  0  0  0
  -31.4020   24.4073    8.1615 H   0  0  0  0  0  0  0  0  0  0  0  0
  -32.9132   22.7206    6.2811 H   0  0  0  0  0  0  0  0  0  0  0  0
  -31.0760   22.7164    6.1034 H   0  0  0  0  0  0  0  0  0  0  0  0
  -31.0997   22.2886    8.6501 H   0  0  0  0  0  0  0  0  0  0  0  0
  -32.8039   21.7173    8.3210 H   0  0  0  0  0  0  0  0  0  0  0  0
  -30.7996   20.6197    6.4669 H   0  0  0  0  0  0  0  0  0  0  0  0
  -30.5498   20.1541    8.1986 H   0  0  0  0  0  0  0  0  0  0  0  0
  -32.0093   18.5030    7.6381 H   0  0  0  0  0  0  0  0  0  0  0  0
  -33.2092   19.8291    8.0207 H   0  0  0  0  0  0  0  0  0  0  0  0
  -32.2694   19.7400    5.2221 H   0  0  0  0  0  0  0  0  0  0  0  0
  -33.2703   18.3155    5.8027 H   0  0  0  0  0  0  0  0  0  0  0  0
  -35.1467   19.4611    5.7580 H   0  0  0  0  0  0  0  0  0  0  0  0
  -34.3503   20.9035    6.5636 H   0  0  0  0  0  0  0  0  0  0  0  0
  1  2  1  0
  2  3  1  0
  3  4  1  0
  4  5  1  0
  5  6  1  0
  6  7  1  0
  7  8  1  0
  8  9  1  0
  9 10  1  0
 10 11  1  0
 11 12  1  0
 12 13  1  0
 13 14  1  0
 14 15  1  0
 15 16  1  0
 16 17  2  0
 16 18  1  0
  1 19  1  0
  1 20  1  0
  1 21  1  0
  2 22  1  0
  2 23  1  0
  3 24  1  0
  3 25  1  0
  4 26  1  0
  4 27  1  0
  5 28  1  0
  5 29  1  0
  6 30  1  0
  6 31  1  0
  7 32  1  0
  7 33  1  0
  8 34  1  0
  8 35  1  0
  9 36  1  0
  9 37  1  0
 10 38  1  0
 10 39  1  0
 11 40  1  0
 11 41  1  0
 12 42  1  0
 12 43  1  0
 13 44  1  0
 13 45  1  0
 14 46  1  0
 14 47  1  0
 15 48  1  0
 15 49  1  0
M  CHG  1  18  -1
M  END
>  <meeko>  (1) 
{"is_sidechain": [false], "free_energy": -6.055, "intermolecular_energy": -11.011, "internal_energy": -2.019}

$$$$
palmitate_Nlobe_run01
     RDKit          3D

 49 48  0  0  0  0  0  0  0  0999 V2000
  -33.3480   24.4940    6.6130 C   0  0  0  0  0  0  0  0  0  0  0  0
  -32.5150   25.3390    7.5640 C   0  0  0  0  0  0  0  0  0  0  0  0
  -31.9180   24.5450    8.7300 C   0  0  0  0  0  0  0  0  0  0  0  0
  -32.5470   23.1590    8.9020 C   0  0  0  0  0  0  0  0  0  0  0  0
  -33.4450   23.0440   10.1400 C   0  0  0  0  0  0  0  0  0  0  0  0
  -34.6620   22.1240   10.0030 C   0  0  0  0  0  0  0  0  0  0  0  0
  -35.0060   21.7780    8.5530 C   0  0  0  0  0  0  0  0  0  0  0  0
  -36.0720   22.7250    7.9950 C   0  0  0  0  0  0  0  0  0  0  0  0
  -37.1610   21.9490    7.2520 C   0  0  0  0  0  0  0  0  0  0  0  0
  -36.6490   20.6840    6.5560 C   0  0  0  0  0  0  0  0  0  0  0  0
  -36.4690   20.7810    5.0370 C   0  0  0  0  0  0  0  0  0  0  0  0
  -35.1110   21.3500    4.6170 C   0  0  0  0  0  0  0  0  0  0  0  0
  -33.9850   20.3430    4.8600 C   0  0  0  0  0  0  0  0  0  0  0  0
  -32.7970   20.9210    5.6380 C   0  0  0  0  0  0  0  0  0  0  0  0
  -32.3140   20.0500    6.7980 C   0  0  0  0  0  0  0  0  0  0  0  0
  -32.3410   18.5680    6.5170 C   0  0  0  0  0  0  0  0  0  0  0  0
  -31.6140   18.0140    5.7040 O   0  0  0  0  0  0  0  0  0  0  0  0
  -33.2840   17.9120    7.2380 O   0  0  0  0  0  0  0  0  0  0  0  0
  -34.0042   23.8284    7.1929 H   0  0  0  0  0  0  0  0  0  0  0  0
  -33.9608   25.1517    5.9791 H   0  0  0  0  0  0  0  0  0  0  0  0
  -32.6816   23.8907    5.9791 H   0  0  0  0  0  0  0  0  0  0  0  0
  -31.6905   25.7926    6.9943 H   0  0  0  0  0  0  0  0  0  0  0  0
  -33.1883   26.0923    7.9990 H   0  0  0  0  0  0  0  0  0  0  0  0
  -30.8398   24.4198    8.5517 H   0  0  0  0  0  0  0  0  0  0  0  0
  -32.1220   25.1126    9.6499 H   0  0  0  0  0  0  0  0  0  0  0  0
  -33.1529   22.9386    8.0107 H   0  0  0  0  0  0  0  0  0  0  0  0
  -31.7220   22.4433    9.0331 H   0  0  0  0  0  0  0  0  0  0  0  0
  -32.8287   22.6658   10.9690 H   0  0  0  0  0  0  0  0  0  0  0  0
  -33.8523   24.0523   10.3059 H   0  0  0  0  0  0  0  0  0  0  0  0
  -34.4542   21.1891   10.5440 H   0  0  0  0  0  0  0  0  0  0  0  0
  -35.5246   22.6647   10.4197 H   0  0  0  0  0  0  0  0  0  0  0  0
  -34.0968   21.8599    7.9393 H   0  0  0  0  0  0  0  0  0  0  0  0
  -35.4024   20.7523    8.5246 H   0  0  0  0  0  0  0  0  0  0  0  0
  -36.5301   23.2806    8.8265 H   0  0  0  0  0  0  0  0  0  0  0  0
  -35.5905   23.4165    7.2879 H   0  0  0  0  0  0  0  0  0  0  0  0
  -37.9356   21.6575    7.9766 H   0  0  0  0  0  0  0  0  0  0  0  0
  -37.5503   22.6133    6.4664 H   0  0  0  0  0  0  0  0  0  0  0  0
  -35.6732   20.4293    6.9953 H   0  0  0  0  0  0  0  0  0  0  0  0
  -37.4260   19.9218    6.7153 H   0  0  0  0  0  0  0  0  0  0  0  0
  -36.5711   19.7727    4.6094 H   0  0  0  0  0  0  0  0  0  0  0  0
  -37.2386   21.4728    4.6640 H   0  0  0  0  0  0  0  0  0  0  0  0
  -35.1431   21.5996    3.5462 H   0  0  0  0  0  0  0  0  0  0  0  0
  -34.9096   22.2472    5.2208 H   0  0  0  0  0  0  0  0  0  0  0  0
  -34.3941   19.4958    5.4301 H   0  0  0  0  0  0  0  0  0  0  0  0
  -33.6057   20.0411    3.8726 H   0  0  0  0  0  0  0  0  0  0  0  0
  -31.9598   21.0547    4.9371 H   0  0  0  0  0  0  0  0  0  0  0  0
  -33.1433   21.8667    6.0803 H   0  0  0  0  0  0  0  0  0  0  0  0
  -31.2789   20.3364    7.0357 H   0  0  0  0  0  0  0  0  0  0  0  0
  -33.0092   20.2243    7.6325 H   0  0  0  0  0  0  0  0  0  0  0  0
  1  2  1  0
  2  3  1  0
  3  4  1  0
  4  5  1  0
  5  6  1  0
  6  7  1  0
  7  8  1  0
  8  9  1  0
  9 10  1  0
 10 11  1  0
 11 12  1  0
 12 13  1  0
 13 14  1  0
 14 15  1  0
 15 16  1  0
 16 17  2  0
 16 18  1  0
  1 19  1  0
  1 20  1  0
  1 21  1  0
  2 22  1  0
  2 23  1  0
  3 24  1  0
  3 25  1  0
  4 26  1  0
  4 27  1  0
  5 28  1  0
  5 29  1  0
  6 30  1  0
  6 31  1  0
  7 32  1  0
  7 33  1  0
  8 34  1  0
  8 35  1  0
  9 36  1  0
  9 37  1  0
 10 38  1  0
 10 39  1  0
 11 40  1  0
 11 41  1  0
 12 42  1  0
 12 43  1  0
 13 44  1  0
 13 45  1  0
 14 46  1  0
 14 47  1  0
 15 48  1  0
 15 49  1  0
M  CHG  1  18  -1
M  END
>  <meeko>  (2) 
{"is_sidechain": [false], "free_energy": -5.969, "intermolecular_energy": -10.862, "internal_energy": -2.011}

$$$$
palmitate_Nlobe_run01
     RDKit          3D

 49 48  0  0  0  0  0  0  0  0999 V2000
  -39.2200   22.0690    7.2440 C   0  0  0  0  0  0  0  0  0  0  0  0
  -39.0690   20.6010    7.6110 C   0  0  0  0  0  0  0  0  0  0  0  0
  -38.7080   19.7060    6.4210 C   0  0  0  0  0  0  0  0  0  0  0  0
  -38.5940   20.4710    5.1000 C   0  0  0  0  0  0  0  0  0  0  0  0
  -37.1800   20.4600    4.5070 C   0  0  0  0  0  0  0  0  0  0  0  0
  -36.1050   21.1890    5.3190 C   0  0  0  0  0  0  0  0  0  0  0  0
  -34.7570   20.4660    5.3370 C   0  0  0  0  0  0  0  0  0  0  0  0
  -34.3410   20.1070    6.7660 C   0  0  0  0  0  0  0  0  0  0  0  0
  -35.3510   20.6420    7.7830 C   0  0  0  0  0  0  0  0  0  0  0  0
  -34.7040   21.2260    9.0430 C   0  0  0  0  0  0  0  0  0  0  0  0
  -34.7190   22.7550    9.1570 C   0  0  0  0  0  0  0  0  0  0  0  0
  -35.5590   23.4410    8.0760 C   0  0  0  0  0  0  0  0  0  0  0  0
  -34.6760   24.1770    7.0670 C   0  0  0  0  0  0  0  0  0  0  0  0
  -33.3050   24.5790    7.6250 C   0  0  0  0  0  0  0  0  0  0  0  0
  -32.1330   24.3050    6.6840 C   0  0  0  0  0  0  0  0  0  0  0  0
  -31.8270   22.8420    6.4790 C   0  0  0  0  0  0  0  0  0  0  0  0
  -31.4070   22.1030    7.3590 O   0  0  0  0  0  0  0  0  0  0  0  0
  -32.0340   22.4340    5.2030 O   0  0  0  0  0  0  0  0  0  0  0  0
  -39.2820   22.6719    8.1619 H   0  0  0  0  0  0  0  0  0  0  0  0
  -38.3502   22.3904    6.6523 H   0  0  0  0  0  0  0  0  0  0  0  0
  -40.1370   22.2066    6.6523 H   0  0  0  0  0  0  0  0  0  0  0  0
  -38.2752   20.5113    8.3672 H   0  0  0  0  0  0  0  0  0  0  0  0
  -40.0449   20.2601    7.9870 H   0  0  0  0  0  0  0  0  0  0  0  0
  -37.7422   19.2220    6.6286 H   0  0  0  0  0  0  0  0  0  0  0  0
  -39.5217   18.9750    6.3047 H   0  0  0  0  0  0  0  0  0  0  0  0
  -39.2803   20.0134    4.3723 H   0  0  0  0  0  0  0  0  0  0  0  0
  -38.8484   21.5202    5.3107 H   0  0  0  0  0  0  0  0  0  0  0  0
  -36.8677   19.4106    4.4011 H   0  0  0  0  0  0  0  0  0  0  0  0
  -37.2537   21.0063    3.5551 H   0  0  0  0  0  0  0  0  0  0  0  0
  -35.9580   22.1884    4.8835 H   0  0  0  0  0  0  0  0  0  0  0  0
  -36.4610   21.2345    6.3588 H   0  0  0  0  0  0  0  0  0  0  0  0
  -34.8368   19.5431    4.7438 H   0  0  0  0  0  0  0  0  0  0  0  0
  -33.9962   21.1363    4.9105 H   0  0  0  0  0  0  0  0  0  0  0  0
  -34.2824   19.0125    6.8592 H   0  0  0  0  0  0  0  0  0  0  0  0
  -33.3620   20.5648    6.9710 H   0  0  0  0  0  0  0  0  0  0  0  0
  -35.9457   21.4313    7.3000 H   0  0  0  0  0  0  0  0  0  0  0  0
  -35.9678   19.7894    8.1034 H   0  0  0  0  0  0  0  0  0  0  0  0
  -35.2360   20.8179    9.9150 H   0  0  0  0  0  0  0  0  0  0  0  0
  -33.6425   20.9420    8.9912 H   0  0  0  0  0  0  0  0  0  0  0  0
  -35.1291   23.0266   10.1409 H   0  0  0  0  0  0  0  0  0  0  0  0
  -33.6822   23.0988    9.0272 H   0  0  0  0  0  0  0  0  0  0  0  0
  -36.1507   22.6802    7.5459 H   0  0  0  0  0  0  0  0  0  0  0  0
  -36.2160   24.1768    8.5628 H   0  0  0  0  0  0  0  0  0  0  0  0
  -34.5185   23.5198    6.1991 H   0  0  0  0  0  0  0  0  0  0  0  0
  -35.1995   25.1069    6.8000 H   0  0  0  0  0  0  0  0  0  0  0  0
  -33.3256   25.6569    7.8434 H   0  0  0  0  0  0  0  0  0  0  0  0
  -33.1384   23.9619    8.5202 H   0  0  0  0  0  0  0  0  0  0  0  0
  -32.3672   24.7480    5.7048 H   0  0  0  0  0  0  0  0  0  0  0  0
  -31.2429   24.7490    7.1537 H   0  0  0  0  0  0  0  0  0  0  0  0
  1  2  1  0
  2  3  1  0
  3  4  1  0
  4  5  1  0
  5  6  1  0
  6  7  1  0
  7  8  1  0
  8  9  1  0
  9 10  1  0
 10 11  1  0
 11 12  1  0
 12 13  1  0
 13 14  1  0
 14 15  1  0
 15 16  1  0
 16 17  2  0
 16 18  1  0
  1 19  1  0
  1 20  1  0
  1 21  1  0
  2 22  1  0
  2 23  1  0
  3 24  1  0
  3 25  1  0
  4 26  1  0
  4 27  1  0
  5 28  1  0
  5 29  1  0
  6 30  1  0
  6 31  1  0
  7 32  1  0
  7 33  1  0
  8 34  1  0
  8 35  1  0
  9 36  1  0
  9 37  1  0
 10 38  1  0
 10 39  1  0
 11 40  1  0
 11 41  1  0
 12 42  1  0
 12 43  1  0
 13 44  1  0
 13 45  1  0
 14 46  1  0
 14 47  1  0
 15 48  1  0
 15 49  1  0
M  CHG  1  18  -1
M  END
>  <meeko>  (3) 
{"is_sidechain": [false], "free_energy": -5.964, "intermolecular_energy": -10.544, "internal_energy": -2.321}

$$$$
palmitate_Nlobe_run01
     RDKit          3D

 49 48  0  0  0  0  0  0  0  0999 V2000
  -34.0500   18.5840   12.1730 C   0  0  0  0  0  0  0  0  0  0  0  0
  -34.3770   19.5190   11.0200 C   0  0  0  0  0  0  0  0  0  0  0  0
  -34.4460   20.9940   11.4270 C   0  0  0  0  0  0  0  0  0  0  0  0
  -34.5110   21.9490   10.2320 C   0  0  0  0  0  0  0  0  0  0  0  0
  -33.4380   23.0440   10.2650 C   0  0  0  0  0  0  0  0  0  0  0  0
  -32.4920   23.0940    9.0610 C   0  0  0  0  0  0  0  0  0  0  0  0
  -31.9710   24.4980    8.7520 C   0  0  0  0  0  0  0  0  0  0  0  0
  -32.8320   25.1870    7.6910 C   0  0  0  0  0  0  0  0  0  0  0  0
  -33.6660   24.1670    6.9120 C   0  0  0  0  0  0  0  0  0  0  0  0
  -35.1760   24.3220    7.1180 C   0  0  0  0  0  0  0  0  0  0  0  0
  -35.9470   23.0310    7.4170 C   0  0  0  0  0  0  0  0  0  0  0  0
  -35.7350   21.9350    6.3700 C   0  0  0  0  0  0  0  0  0  0  0  0
  -35.2520   20.6350    7.0140 C   0  0  0  0  0  0  0  0  0  0  0  0
  -33.7490   20.3810    6.8410 C   0  0  0  0  0  0  0  0  0  0  0  0
  -33.3640   19.7380    5.5090 C   0  0  0  0  0  0  0  0  0  0  0  0
  -32.9780   20.7210    4.4310 C   0  0  0  0  0  0  0  0  0  0  0  0
  -33.0850   20.4960    3.2320 O   0  0  0  0  0  0  0  0  0  0  0  0
  -32.4650   21.8730    4.9280 O   0  0  0  0  0  0  0  0  0  0  0  0
  -34.2308   19.1010   13.1269 H   0  0  0  0  0  0  0  0  0  0  0  0
  -34.6891   17.6907   12.1132 H   0  0  0  0  0  0  0  0  0  0  0  0
  -32.9935   18.2837   12.1132 H   0  0  0  0  0  0  0  0  0  0  0  0
  -33.5994   19.4068   10.2501 H   0  0  0  0  0  0  0  0  0  0  0  0
  -35.3748   19.2393   10.6510 H   0  0  0  0  0  0  0  0  0  0  0  0
  -35.3444   21.1445   12.0436 H   0  0  0  0  0  0  0  0  0  0  0  0
  -33.5221   21.2237   11.9781 H   0  0  0  0  0  0  0  0  0  0  0  0
  -34.3819   21.3627    9.3103 H   0  0  0  0  0  0  0  0  0  0  0  0
  -35.4883   22.4523   10.2728 H   0  0  0  0  0  0  0  0  0  0  0  0
  -33.9502   24.0152   10.3311 H   0  0  0  0  0  0  0  0  0  0  0  0
  -32.8025   22.8103   11.1319 H   0  0  0  0  0  0  0  0  0  0  0  0
  -31.6313   22.4409    9.2673 H   0  0  0  0  0  0  0  0  0  0  0  0
  -33.0671   22.7622    8.1839 H   0  0  0  0  0  0  0  0  0  0  0  0
  -31.9888   25.0982    9.6737 H   0  0  0  0  0  0  0  0  0  0  0  0
  -30.9449   24.4113    8.3652 H   0  0  0  0  0  0  0  0  0  0  0  0
  -33.5072   25.9015    8.1845 H   0  0  0  0  0  0  0  0  0  0  0  0
  -32.1677   25.7075    6.9855 H   0  0  0  0  0  0  0  0  0  0  0  0
  -33.4475   24.2853    5.8404 H   0  0  0  0  0  0  0  0  0  0  0  0
  -33.3903   23.1709    7.2885 H   0  0  0  0  0  0  0  0  0  0  0  0
  -35.3322   25.0108    7.9613 H   0  0  0  0  0  0  0  0  0  0  0  0
  -35.5710   24.6894    6.1594 H   0  0  0  0  0  0  0  0  0  0  0  0
  -35.6175   22.6473    8.3938 H   0  0  0  0  0  0  0  0  0  0  0  0
  -37.0173   23.2845    7.4069 H   0  0  0  0  0  0  0  0  0  0  0  0
  -36.6868   21.7458    5.8520 H   0  0  0  0  0  0  0  0  0  0  0  0
  -34.9664   22.2769    5.6612 H   0  0  0  0  0  0  0  0  0  0  0  0
  -35.4752   20.6770    8.0903 H   0  0  0  0  0  0  0  0  0  0  0  0
  -35.7770   19.8116    6.5077 H   0  0  0  0  0  0  0  0  0  0  0  0
  -33.2262   21.3455    6.9207 H   0  0  0  0  0  0  0  0  0  0  0  0
  -33.4596   19.6685    7.6275 H   0  0  0  0  0  0  0  0  0  0  0  0
  -32.5101   19.0673    5.6848 H   0  0  0  0  0  0  0  0  0  0  0  0
  -34.2573   19.2086    5.1460 H   0  0  0  0  0  0  0  0  0  0  0  0
  1  2  1  0
  2  3  1  0
  3  4  1  0
  4  5  1  0
  5  6  1  0
  6  7  1  0
  7  8  1  0
  8  9  1  0
  9 10  1  0
 10 11  1  0
 11 12  1  0
 12 13  1  0
 13 14  1  0
 14 15  1  0
 15 16  1  0
 16 17  2  0
 16 18  1  0
  1 19  1  0
  1 20  1  0
  1 21  1  0
  2 22  1  0
  2 23  1  0
  3 24  1  0
  3 25  1  0
  4 26  1  0
  4 27  1  0
  5 28  1  0
  5 29  1  0
  6 30  1  0
  6 31  1  0
  7 32  1  0
  7 33  1  0
  8 34  1  0
  8 35  1  0
  9 36  1  0
  9 37  1  0
 10 38  1  0
 10 39  1  0
 11 40  1  0
 11 41  1  0
 12 42  1  0
 12 43  1  0
 13 44  1  0
 13 45  1  0
 14 46  1  0
 14 47  1  0
 15 48  1  0
 15 49  1  0
M  CHG  1  18  -1
M  END
>  <meeko>  (4) 
{"is_sidechain": [false], "free_energy": -5.958, "intermolecular_energy": -11.302, "internal_energy": -1.552}

$$$$
palmitate_Nlobe_run01
     RDKit          3D

 49 48  0  0  0  0  0  0  0  0999 V2000
  -31.8830   24.5940    8.6720 C   0  0  0  0  0  0  0  0  0  0  0  0
  -32.2440   24.9620    7.2410 C   0  0  0  0  0  0  0  0  0  0  0  0
  -33.6740   24.5780    6.8510 C   0  0  0  0  0  0  0  0  0  0  0  0
  -34.3290   23.6020    7.8330 C   0  0  0  0  0  0  0  0  0  0  0  0
  -35.8390   23.4410    7.6210 C   0  0  0  0  0  0  0  0  0  0  0  0
  -36.4090   22.0440    7.8850 C   0  0  0  0  0  0  0  0  0  0  0  0
  -37.7800   21.8140    7.2460 C   0  0  0  0  0  0  0  0  0  0  0  0
  -37.8590   20.4350    6.5860 C   0  0  0  0  0  0  0  0  0  0  0  0
  -38.2540   20.5530    5.1130 C   0  0  0  0  0  0  0  0  0  0  0  0
  -37.0780   20.3810    4.1460 C   0  0  0  0  0  0  0  0  0  0  0  0
  -35.8270   21.2100    4.4580 C   0  0  0  0  0  0  0  0  0  0  0  0
  -34.6620   20.3790    5.0030 C   0  0  0  0  0  0  0  0  0  0  0  0
  -33.3460   21.1550    4.9390 C   0  0  0  0  0  0  0  0  0  0  0  0
  -32.4420   20.9400    6.1590 C   0  0  0  0  0  0  0  0  0  0  0  0
  -32.8220   19.7390    7.0250 C   0  0  0  0  0  0  0  0  0  0  0  0
  -31.9180   18.5420    6.8610 C   0  0  0  0  0  0  0  0  0  0  0  0
  -31.2970   18.0240    7.7810 O   0  0  0  0  0  0  0  0  0  0  0  0
  -31.8350   18.1160    5.5770 O   0  0  0  0  0  0  0  0  0  0  0  0
  -32.4793   25.2018    9.3685 H   0  0  0  0  0  0  0  0  0  0  0  0
  -32.0955   23.5281    8.8412 H   0  0  0  0  0  0  0  0  0  0  0  0
  -30.8132   24.7860    8.8412 H   0  0  0  0  0  0  0  0  0  0  0  0
  -32.1316   26.0499    7.1229 H   0  0  0  0  0  0  0  0  0  0  0  0
  -31.5676   24.3974    6.5825 H   0  0  0  0  0  0  0  0  0  0  0  0
  -34.2825   25.4935    6.8106 H   0  0  0  0  0  0  0  0  0  0  0  0
  -33.6207   24.0719    5.8758 H   0  0  0  0  0  0  0  0  0  0  0  0
  -33.8539   22.6171    7.7138 H   0  0  0  0  0  0  0  0  0  0  0  0
  -34.1866   24.0150    8.8425 H   0  0  0  0  0  0  0  0  0  0  0  0
  -36.3503   24.1457    8.2934 H   0  0  0  0  0  0  0  0  0  0  0  0
  -36.0106   23.6341    6.5517 H   0  0  0  0  0  0  0  0  0  0  0  0
  -35.7072   21.2995    7.4811 H   0  0  0  0  0  0  0  0  0  0  0  0
  -36.5386   21.9475    8.9731 H   0  0  0  0  0  0  0  0  0  0  0  0
  -38.5547   21.8844    8.0237 H   0  0  0  0  0  0  0  0  0  0  0  0
  -37.9364   22.5799    6.4721 H   0  0  0  0  0  0  0  0  0  0  0  0
  -36.8763   19.9458    6.6566 H   0  0  0  0  0  0  0  0  0  0  0  0
  -38.6242   19.8409    7.1071 H   0  0  0  0  0  0  0  0  0  0  0  0
  -39.0028   19.7785    4.8908 H   0  0  0  0  0  0  0  0  0  0  0  0
  -38.6466   21.5699    4.9652 H   0  0  0  0  0  0  0  0  0  0  0  0
  -36.7891   19.3196    4.1524 H   0  0  0  0  0  0  0  0  0  0  0  0
  -37.4388   20.7424    3.1717 H   0  0  0  0  0  0  0  0  0  0  0  0
  -35.4981   21.7052    3.5325 H   0  0  0  0  0  0  0  0  0  0  0  0
  -36.1042   21.9304    5.2417 H   0  0  0  0  0  0  0  0  0  0  0  0
  -34.8705   20.1136    6.0499 H   0  0  0  0  0  0  0  0  0  0  0  0
  -34.5617   19.4752    4.3840 H   0  0  0  0  0  0  0  0  0  0  0  0
  -32.7980   20.8353    4.0404 H   0  0  0  0  0  0  0  0  0  0  0  0
  -33.6046   22.2239    4.9157 H   0  0  0  0  0  0  0  0  0  0  0  0
  -31.4118   20.7941    5.8020 H   0  0  0  0  0  0  0  0  0  0  0  0
  -32.5548   21.8316    6.7933 H   0  0  0  0  0  0  0  0  0  0  0  0
  -32.7914   20.0515    8.0792 H   0  0  0  0  0  0  0  0  0  0  0  0
  -33.8243   19.4225    6.7008 H   0  0  0  0  0  0  0  0  0  0  0  0
  1  2  1  0
  2  3  1  0
  3  4  1  0
  4  5  1  0
  5  6  1  0
  6  7  1  0
  7  8  1  0
  8  9  1  0
  9 10  1  0
 10 11  1  0
 11 12  1  0
 12 13  1  0
 13 14  1  0
 14 15  1  0
 15 16  1  0
 16 17  2  0
 16 18  1  0
  1 19  1  0
  1 20  1  0
  1 21  1  0
  2 22  1  0
  2 23  1  0
  3 24  1  0
  3 25  1  0
  4 26  1  0
  4 27  1  0
  5 28  1  0
  5 29  1  0
  6 30  1  0
  6 31  1  0
  7 32  1  0
  7 33  1  0
  8 34  1  0
  8 35  1  0
  9 36  1  0
  9 37  1  0
 10 38  1  0
 10 39  1  0
 11 40  1  0
 11 41  1  0
 12 42  1  0
 12 43  1  0
 13 44  1  0
 13 45  1  0
 14 46  1  0
 14 47  1  0
 15 48  1  0
 15 49  1  0
M  CHG  1  18  -1
M  END
>  <meeko>  (5) 
{"is_sidechain": [false], "free_energy": -5.954, "intermolecular_energy": -11.09, "internal_energy": -1.757}

$$$$
palmitate_Nlobe_run01
     RDKit          3D

 49 48  0  0  0  0  0  0  0  0999 V2000
  -32.2280   24.9430    7.1300 C   0  0  0  0  0  0  0  0  0  0  0  0
  -31.9890   24.6240    8.5970 C   0  0  0  0  0  0  0  0  0  0  0  0
  -32.4500   23.2200    9.0020 C   0  0  0  0  0  0  0  0  0  0  0  0
  -33.9600   23.1230    9.2350 C   0  0  0  0  0  0  0  0  0  0  0  0
  -34.3440   22.1580   10.3630 C   0  0  0  0  0  0  0  0  0  0  0  0
  -35.0140   20.8510    9.9280 C   0  0  0  0  0  0  0  0  0  0  0  0
  -34.0290   19.7000    9.7180 C   0  0  0  0  0  0  0  0  0  0  0  0
  -34.0990   19.1660    8.2850 C   0  0  0  0  0  0  0  0  0  0  0  0
  -33.0840   19.8750    7.3850 C   0  0  0  0  0  0  0  0  0  0  0  0
  -33.6430   20.2540    6.0100 C   0  0  0  0  0  0  0  0  0  0  0  0
  -34.0350   21.7250    5.8300 C   0  0  0  0  0  0  0  0  0  0  0  0
  -35.5120   22.0050    6.1230 C   0  0  0  0  0  0  0  0  0  0  0  0
  -36.3950   20.8260    5.7100 C   0  0  0  0  0  0  0  0  0  0  0  0
  -37.4840   20.4830    6.7340 C   0  0  0  0  0  0  0  0  0  0  0  0
  -38.1560   21.6960    7.3760 C   0  0  0  0  0  0  0  0  0  0  0  0
  -39.6640   21.6660    7.3390 C   0  0  0  0  0  0  0  0  0  0  0  0
  -40.3600   22.6330    7.0580 O   0  0  0  0  0  0  0  0  0  0  0  0
  -40.1750   20.4590    7.6840 O   0  0  0  0  0  0  0  0  0  0  0  0
  -32.8857   25.8209    7.0481 H   0  0  0  0  0  0  0  0  0  0  0  0
  -31.2668   25.1580    6.6402 H   0  0  0  0  0  0  0  0  0  0  0  0
  -32.7044   24.0809    6.6402 H   0  0  0  0  0  0  0  0  0  0  0  0
  -30.9112   24.7083    8.8002 H   0  0  0  0  0  0  0  0  0  0  0  0
  -32.5825   25.3404    9.1839 H   0  0  0  0  0  0  0  0  0  0  0  0
  -32.1742   22.5174    8.2018 H   0  0  0  0  0  0  0  0  0  0  0  0
  -31.9567   22.9769    9.9547 H   0  0  0  0  0  0  0  0  0  0  0  0
  -34.3381   24.1242    9.4895 H   0  0  0  0  0  0  0  0  0  0  0  0
  -34.4059   22.7317    8.3087 H   0  0  0  0  0  0  0  0  0  0  0  0
  -33.4265   21.8996   10.9121 H   0  0  0  0  0  0  0  0  0  0  0  0
  -35.0943   22.6899   10.9665 H   0  0  0  0  0  0  0  0  0  0  0  0
  -35.7353   20.5546   10.7039 H   0  0  0  0  0  0  0  0  0  0  0  0
  -35.4982   21.0429    8.9591 H   0  0  0  0  0  0  0  0  0  0  0  0
  -33.0088   20.0599    9.9174 H   0  0  0  0  0  0  0  0  0  0  0  0
  -34.2942   18.8845   10.4070 H   0  0  0  0  0  0  0  0  0  0  0  0
  -33.8820   18.0876    8.2920 H   0  0  0  0  0  0  0  0  0  0  0  0
  -35.1084   19.3535    7.8902 H   0  0  0  0  0  0  0  0  0  0  0  0
  -32.7527   20.7938    7.8910 H   0  0  0  0  0  0  0  0  0  0  0  0
  -32.2570   19.1702    7.2139 H   0  0  0  0  0  0  0  0  0  0  0  0
  -32.8777   20.0144    5.2571 H   0  0  0  0  0  0  0  0  0  0  0  0
  -34.5756   19.6813    5.8991 H   0  0  0  0  0  0  0  0  0  0  0  0
  -33.4234   22.3341    6.5119 H   0  0  0  0  0  0  0  0  0  0  0  0
  -33.8614   21.9787    4.7738 H   0  0  0  0  0  0  0  0  0  0  0  0
  -35.6354   22.1844    7.2012 H   0  0  0  0  0  0  0  0  0  0  0  0
  -35.8191   22.8880    5.5433 H   0  0  0  0  0  0  0  0  0  0  0  0
  -36.8818   21.0744    4.7554 H   0  0  0  0  0  0  0  0  0  0  0  0
  -35.7398   19.9460    5.6305 H   0  0  0  0  0  0  0  0  0  0  0  0
  -38.2588   19.8901    6.2258 H   0  0  0  0  0  0  0  0  0  0  0  0
  -36.9865   19.9345    7.5474 H   0  0  0  0  0  0  0  0  0  0  0  0
  -37.8387   21.7483    8.4280 H   0  0  0  0  0  0  0  0  0  0  0  0
  -37.8452   22.5735    6.7900 H   0  0  0  0  0  0  0  0  0  0  0  0
  1  2  1  0
  2  3  1  0
  3  4  1  0
  4  5  1  0
  5  6  1  0
  6  7  1  0
  7  8  1  0
  8  9  1  0
  9 10  1  0
 10 11  1  0
 11 12  1  0
 12 13  1  0
 13 14  1  0
 14 15  1  0
 15 16  1  0
 16 17  2  0
 16 18  1  0
  1 19  1  0
  1 20  1  0
  1 21  1  0
  2 22  1  0
  2 23  1  0
  3 24  1  0
  3 25  1  0
  4 26  1  0
  4 27  1  0
  5 28  1  0
  5 29  1  0
  6 30  1  0
  6 31  1  0
  7 32  1  0
  7 33  1  0
  8 34  1  0
  8 35  1  0
  9 36  1  0
  9 37  1  0
 10 38  1  0
 10 39  1  0
 11 40  1  0
 11 41  1  0
 12 42  1  0
 12 43  1  0
 13 44  1  0
 13 45  1  0
 14 46  1  0
 14 47  1  0
 15 48  1  0
 15 49  1  0
M  CHG  1  18  -1
M  END
>  <meeko>  (6) 
{"is_sidechain": [false], "free_energy": -5.898, "intermolecular_energy": -10.53, "internal_energy": -2.215}

$$$$
palmitate_Nlobe_run01
     RDKit          3D

 49 48  0  0  0  0  0  0  0  0999 V2000
  -34.9240   21.1700    9.9180 C   0  0  0  0  0  0  0  0  0  0  0  0
  -34.8770   20.5930    8.5120 C   0  0  0  0  0  0  0  0  0  0  0  0
  -36.0990   20.9480    7.6610 C   0  0  0  0  0  0  0  0  0  0  0  0
  -36.4670   22.4330    7.7200 C   0  0  0  0  0  0  0  0  0  0  0  0
  -35.5090   23.3330    6.9300 C   0  0  0  0  0  0  0  0  0  0  0  0
  -34.5730   24.2130    7.7650 C   0  0  0  0  0  0  0  0  0  0  0  0
  -33.5260   24.9530    6.9310 C   0  0  0  0  0  0  0  0  0  0  0  0
  -32.1080   24.5110    7.3010 C   0  0  0  0  0  0  0  0  0  0  0  0
  -32.1350   23.2480    8.1650 C   0  0  0  0  0  0  0  0  0  0  0  0
  -31.6570   21.9910    7.4320 C   0  0  0  0  0  0  0  0  0  0  0  0
  -31.8000   22.0120    5.9060 C   0  0  0  0  0  0  0  0  0  0  0  0
  -33.1250   21.4270    5.4070 C   0  0  0  0  0  0  0  0  0  0  0  0
  -32.8990   20.4100    4.2880 C   0  0  0  0  0  0  0  0  0  0  0  0
  -32.4000   19.0470    4.7830 C   0  0  0  0  0  0  0  0  0  0  0  0
  -32.8990   18.6570    6.1740 C   0  0  0  0  0  0  0  0  0  0  0  0
  -31.8060   18.3050    7.1530 C   0  0  0  0  0  0  0  0  0  0  0  0
  -31.8700   18.5250    8.3550 O   0  0  0  0  0  0  0  0  0  0  0  0
  -30.7250   17.7470    6.5560 O   0  0  0  0  0  0  0  0  0  0  0  0
  -34.8575   20.3533   10.6519 H   0  0  0  0  0  0  0  0  0  0  0  0
  -34.0791   21.8600   10.0596 H   0  0  0  0  0  0  0  0  0  0  0  0
  -35.8694   21.7141   10.0596 H   0  0  0  0  0  0  0  0  0  0  0  0
  -33.9786   20.9788    8.0079 H   0  0  0  0  0  0  0  0  0  0  0  0
  -34.8628   19.4978    8.6138 H   0  0  0  0  0  0  0  0  0  0  0  0
  -35.8852   20.6825    6.6151 H   0  0  0  0  0  0  0  0  0  0  0  0
  -36.9527   20.3844    8.0654 H   0  0  0  0  0  0  0  0  0  0  0  0
  -37.4798   22.5572    7.3091 H   0  0  0  0  0  0  0  0  0  0  0  0
  -36.4037   22.7402    8.7743 H   0  0  0  0  0  0  0  0  0  0  0  0
  -34.8856   22.6860    6.2953 H   0  0  0  0  0  0  0  0  0  0  0  0
  -36.1501   24.0296    6.3698 H   0  0  0  0  0  0  0  0  0  0  0  0
  -35.1806   24.9570    8.3009 H   0  0  0  0  0  0  0  0  0  0  0  0
  -34.0287   23.5469    8.4506 H   0  0  0  0  0  0  0  0  0  0  0  0
  -33.7011   24.7413    5.8659 H   0  0  0  0  0  0  0  0  0  0  0  0
  -33.6183   26.0303    7.1334 H   0  0  0  0  0  0  0  0  0  0  0  0
  -31.5437   24.3045    6.3796 H   0  0  0  0  0  0  0  0  0  0  0  0
  -31.6279   25.3177    7.8744 H   0  0  0  0  0  0  0  0  0  0  0  0
  -31.4847   23.4099    9.0373 H   0  0  0  0  0  0  0  0  0  0  0  0
  -33.1834   23.0753    8.4497 H   0  0  0  0  0  0  0  0  0  0  0  0
  -30.5926   21.8467    7.6690 H   0  0  0  0  0  0  0  0  0  0  0  0
  -32.3084   21.1763    7.7813 H   0  0  0  0  0  0  0  0  0  0  0  0
  -31.7296   23.0552    5.5643 H   0  0  0  0  0  0  0  0  0  0  0  0
  -30.9951   21.3833    5.4975 H   0  0  0  0  0  0  0  0  0  0  0  0
  -33.6349   20.9296    6.2452 H   0  0  0  0  0  0  0  0  0  0  0  0
  -33.7386   22.2488    5.0094 H   0  0  0  0  0  0  0  0  0  0  0  0
  -33.8513   20.2594    3.7585 H   0  0  0  0  0  0  0  0  0  0  0  0
  -32.1150   20.8207    3.6349 H   0  0  0  0  0  0  0  0  0  0  0  0
  -32.7344   18.2790    4.0701 H   0  0  0  0  0  0  0  0  0  0  0  0
  -31.3047   19.1210    4.8527 H   0  0  0  0  0  0  0  0  0  0  0  0
  -33.4691   19.5034    6.5847 H   0  0  0  0  0  0  0  0  0  0  0  0
  -33.5090   17.7507    6.0457 H   0  0  0  0  0  0  0  0  0  0  0  0
  1  2  1  0
  2  3  1  0
  3  4  1  0
  4  5  1  0
  5  6  1  0
  6  7  1  0
  7  8  1  0
  8  9  1  0
  9 10  1  0
 10 11  1  0
 11 12  1  0
 12 13  1  0
 13 14  1  0
 14 15  1  0
 15 16  1  0
 16 17  2  0
 16 18  1  0
  1 19  1  0
  1 20  1  0
  1 21  1  0
  2 22  1  0
  2 23  1  0
  3 24  1  0
  3 25  1  0
  4 26  1  0
  4 27  1  0
  5 28  1  0
  5 29  1  0
  6 30  1  0
  6 31  1  0
  7 32  1  0
  7 33  1  0
  8 34  1  0
  8 35  1  0
  9 36  1  0
  9 37  1  0
 10 38  1  0
 10 39  1  0
 11 40  1  0
 11 41  1  0
 12 42  1  0
 12 43  1  0
 13 44  1  0
 13 45  1  0
 14 46  1  0
 14 47  1  0
 15 48  1  0
 15 49  1  0
M  CHG  1  18  -1
M  END
>  <meeko>  (7) 
{"is_sidechain": [false], "free_energy": -5.898, "intermolecular_energy": -10.56, "internal_energy": -2.183}

$$$$
palmitate_Nlobe_run01
     RDKit          3D

 49 48  0  0  0  0  0  0  0  0999 V2000
  -31.1970   18.1730    6.7590 C   0  0  0  0  0  0  0  0  0  0  0  0
  -32.2750   19.2420    6.6730 C   0  0  0  0  0  0  0  0  0  0  0  0
  -32.0140   20.4520    7.5760 C   0  0  0  0  0  0  0  0  0  0  0  0
  -31.3590   21.6250    6.8410 C   0  0  0  0  0  0  0  0  0  0  0  0
  -32.3680   22.6070    6.2340 C   0  0  0  0  0  0  0  0  0  0  0  0
  -32.0810   24.0940    6.4680 C   0  0  0  0  0  0  0  0  0  0  0  0
  -32.9110   24.7050    7.5980 C   0  0  0  0  0  0  0  0  0  0  0  0
  -32.1680   24.6290    8.9340 C   0  0  0  0  0  0  0  0  0  0  0  0
  -32.5620   23.3700    9.7110 C   0  0  0  0  0  0  0  0  0  0  0  0
  -34.0760   23.1660    9.8230 C   0  0  0  0  0  0  0  0  0  0  0  0
  -34.5470   21.7150    9.9720 C   0  0  0  0  0  0  0  0  0  0  0  0
  -35.3370   21.2010    8.7660 C   0  0  0  0  0  0  0  0  0  0  0  0
  -35.7560   22.3470    7.8450 C   0  0  0  0  0  0  0  0  0  0  0  0
  -36.2430   21.8850    6.4650 C   0  0  0  0  0  0  0  0  0  0  0  0
  -35.4660   20.7060    5.8810 C   0  0  0  0  0  0  0  0  0  0  0  0
  -35.2530   20.7770    4.3890 C   0  0  0  0  0  0  0  0  0  0  0  0
  -34.2030   21.1250    3.8650 O   0  0  0  0  0  0  0  0  0  0  0  0
  -36.3620   20.4470    3.6830 O   0  0  0  0  0  0  0  0  0  0  0  0
  -30.9787   17.9565    7.8152 H   0  0  0  0  0  0  0  0  0  0  0  0
  -31.5487   17.2568    6.2620 H   0  0  0  0  0  0  0  0  0  0  0  0
  -30.2838   18.5323    6.2620 H   0  0  0  0  0  0  0  0  0  0  0  0
  -32.3352   19.5919    5.6319 H   0  0  0  0  0  0  0  0  0  0  0  0
  -33.2135   18.7813    7.0151 H   0  0  0  0  0  0  0  0  0  0  0  0
  -32.9744   20.7921    7.9907 H   0  0  0  0  0  0  0  0  0  0  0  0
  -31.3154   20.1282    8.3615 H   0  0  0  0  0  0  0  0  0  0  0  0
  -30.7259   22.1730    7.5544 H   0  0  0  0  0  0  0  0  0  0  0  0
  -30.7788   21.2013    6.0080 H   0  0  0  0  0  0  0  0  0  0  0  0
  -32.3928   22.4357    5.1477 H   0  0  0  0  0  0  0  0  0  0  0  0
  -33.3220   22.4050    6.7430 H   0  0  0  0  0  0  0  0  0  0  0  0
  -31.0158   24.2080    6.7176 H   0  0  0  0  0  0  0  0  0  0  0  0
  -32.3521   24.6252    5.5437 H   0  0  0  0  0  0  0  0  0  0  0  0
  -33.1176   25.7593    7.3618 H   0  0  0  0  0  0  0  0  0  0  0  0
  -33.8486   24.1368    7.6880 H   0  0  0  0  0  0  0  0  0  0  0  0
  -31.0850   24.6092    8.7425 H   0  0  0  0  0  0  0  0  0  0  0  0
  -32.4374   25.5100    9.5350 H   0  0  0  0  0  0  0  0  0  0  0  0
  -32.1305   22.4968    9.1998 H   0  0  0  0  0  0  0  0  0  0  0  0
  -32.1764   23.4891   10.7343 H   0  0  0  0  0  0  0  0  0  0  0  0
  -34.4274   23.7263   10.7020 H   0  0  0  0  0  0  0  0  0  0  0  0
  -34.4951   23.5184    8.8690 H   0  0  0  0  0  0  0  0  0  0  0  0
  -33.6630   21.0745   10.1075 H   0  0  0  0  0  0  0  0  0  0  0  0
  -35.2235   21.6825   10.8388 H   0  0  0  0  0  0  0  0  0  0  0  0
  -34.7086   20.4980    8.1996 H   0  0  0  0  0  0  0  0  0  0  0  0
  -36.2458   20.7023    9.1341 H   0  0  0  0  0  0  0  0  0  0  0  0
  -36.5704   22.9034    8.3320 H   0  0  0  0  0  0  0  0  0  0  0  0
  -34.8632   22.9677    7.6788 H   0  0  0  0  0  0  0  0  0  0  0  0
  -37.2990   21.5902    6.5543 H   0  0  0  0  0  0  0  0  0  0  0  0
  -36.0893   22.7314    5.7794 H   0  0  0  0  0  0  0  0  0  0  0  0
  -34.4803   20.6688    6.3678 H   0  0  0  0  0  0  0  0  0  0  0  0
  -36.0716   19.8072    6.0690 H   0  0  0  0  0  0  0  0  0  0  0  0
  1  2  1  0
  2  3  1  0
  3  4  1  0
  4  5  1  0
  5  6  1  0
  6  7  1  0
  7  8  1  0
  8  9  1  0
  9 10  1  0
 10 11  1  0
 11 12  1  0
 12 13  1  0
 13 14  1  0
 14 15  1  0
 15 16  1  0
 16 17  2  0
 16 18  1  0
  1 19  1  0
  1 20  1  0
  1 21  1  0
  2 22  1  0
  2 23  1  0
  3 24  1  0
  3 25  1  0
  4 26  1  0
  4 27  1  0
  5 28  1  0
  5 29  1  0
  6 30  1  0
  6 31  1  0
  7 32  1  0
  7 33  1  0
  8 34  1  0
  8 35  1  0
  9 36  1  0
  9 37  1  0
 10 38  1  0
 10 39  1  0
 11 40  1  0
 11 41  1  0
 12 42  1  0
 12 43  1  0
 13 44  1  0
 13 45  1  0
 14 46  1  0
 14 47  1  0
 15 48  1  0
 15 49  1  0
M  CHG  1  18  -1
M  END
>  <meeko>  (8) 
{"is_sidechain": [false], "free_energy": -5.864, "intermolecular_energy": -10.399, "internal_energy": -2.283}

$$$$
palmitate_Nlobe_run01
     RDKit          3D

 49 48  0  0  0  0  0  0  0  0999 V2000
  -39.8130   20.2530    7.4930 C   0  0  0  0  0  0  0  0  0  0  0  0
  -38.9220   20.3220    6.2630 C   0  0  0  0  0  0  0  0  0  0  0  0
  -37.4330   20.4630    6.5910 C   0  0  0  0  0  0  0  0  0  0  0  0
  -37.1380   21.5760    7.6010 C   0  0  0  0  0  0  0  0  0  0  0  0
  -35.8150   21.3860    8.3520 C   0  0  0  0  0  0  0  0  0  0  0  0
  -34.9760   22.6500    8.5650 C   0  0  0  0  0  0  0  0  0  0  0  0
  -35.4560   23.8470    7.7430 C   0  0  0  0  0  0  0  0  0  0  0  0
  -34.4300   24.2330    6.6750 C   0  0  0  0  0  0  0  0  0  0  0  0
  -33.2320   24.9530    7.2990 C   0  0  0  0  0  0  0  0  0  0  0  0
  -31.8860   24.2910    6.9870 C   0  0  0  0  0  0  0  0  0  0  0  0
  -31.9550   22.8730    6.4100 C   0  0  0  0  0  0  0  0  0  0  0  0
  -31.3830   21.8030    7.3440 C   0  0  0  0  0  0  0  0  0  0  0  0
  -32.3060   20.5880    7.4320 C   0  0  0  0  0  0  0  0  0  0  0  0
  -32.4960   19.8590    6.0950 C   0  0  0  0  0  0  0  0  0  0  0  0
  -33.9090   19.9510    5.5180 C   0  0  0  0  0  0  0  0  0  0  0  0
  -34.0150   20.7740    4.2580 C   0  0  0  0  0  0  0  0  0  0  0  0
  -33.1960   20.7400    3.3490 O   0  0  0  0  0  0  0  0  0  0  0  0
  -35.1000   21.5860    4.2500 O   0  0  0  0  0  0  0  0  0  0  0  0
  -39.1914   20.3011    8.3992 H   0  0  0  0  0  0  0  0  0  0  0  0
  -40.5155   21.0994    7.4848 H   0  0  0  0  0  0  0  0  0  0  0  0
  -40.3768   19.3085    7.4848 H   0  0  0  0  0  0  0  0  0  0  0  0
  -39.0636   19.4006    5.6790 H   0  0  0  0  0  0  0  0  0  0  0  0
  -39.2152   21.2221    5.7027 H   0  0  0  0  0  0  0  0  0  0  0  0
  -37.0754   19.5098    7.0075 H   0  0  0  0  0  0  0  0  0  0  0  0
  -36.9169   20.7263    5.6560 H   0  0  0  0  0  0  0  0  0  0  0  0
  -37.0976   22.5338    7.0616 H   0  0  0  0  0  0  0  0  0  0  0  0
  -37.9420   21.5531    8.3514 H   0  0  0  0  0  0  0  0  0  0  0  0
  -36.0472   20.9655    9.3416 H   0  0  0  0  0  0  0  0  0  0  0  0
  -35.2045   20.7287    7.7155 H   0  0  0  0  0  0  0  0  0  0  0  0
  -35.0179   22.9201    9.6305 H   0  0  0  0  0  0  0  0  0  0  0  0
  -33.9531   22.4189    8.2329 H   0  0  0  0  0  0  0  0  0  0  0  0
  -36.4050   23.5871    7.2513 H   0  0  0  0  0  0  0  0  0  0  0  0
  -35.5916   24.7027    8.4208 H   0  0  0  0  0  0  0  0  0  0  0  0
  -34.0782   23.3221    6.1685 H   0  0  0  0  0  0  0  0  0  0  0  0
  -34.9114   24.9125    5.9563 H   0  0  0  0  0  0  0  0  0  0  0  0
  -33.2088   25.9843    6.9170 H   0  0  0  0  0  0  0  0  0  0  0  0
  -33.3651   24.9131    8.3902 H   0  0  0  0  0  0  0  0  0  0  0  0
  -31.3590   24.9256    6.2593 H   0  0  0  0  0  0  0  0  0  0  0  0
  -31.3709   24.1940    7.9541 H   0  0  0  0  0  0  0  0  0  0  0  0
  -33.0087   22.6307    6.2076 H   0  0  0  0  0  0  0  0  0  0  0  0
  -31.3414   22.8659    5.4970 H   0  0  0  0  0  0  0  0  0  0  0  0
  -30.4031   21.4810    6.9617 H   0  0  0  0  0  0  0  0  0  0  0  0
  -31.2861   22.2376    8.3499 H   0  0  0  0  0  0  0  0  0  0  0  0
  -31.8786   19.8790    8.1564 H   0  0  0  0  0  0  0  0  0  0  0  0
  -33.2952   20.9576    7.7398 H   0  0  0  0  0  0  0  0  0  0  0  0
  -31.7976   20.2934    5.3645 H   0  0  0  0  0  0  0  0  0  0  0  0
  -32.3064   18.7932    6.2901 H   0  0  0  0  0  0  0  0  0  0  0  0
  -34.2560   18.9316    5.2934 H   0  0  0  0  0  0  0  0  0  0  0  0
  -34.5255   20.4564    6.2760 H   0  0  0  0  0  0  0  0  0  0  0  0
  1  2  1  0
  2  3  1  0
  3  4  1  0
  4  5  1  0
  5  6  1  0
  6  7  1  0
  7  8  1  0
  8  9  1  0
  9 10  1  0
 10 11  1  0
 11 12  1  0
 12 13  1  0
 13 14  1  0
 14 15  1  0
 15 16  1  0
 16 17  2  0
 16 18  1  0
  1 19  1  0
  1 20  1  0
  1 21  1  0
  2 22  1  0
  2 23  1  0
  3 24  1  0
  3 25  1  0
  4 26  1  0
  4 27  1  0
  5 28  1  0
  5 29  1  0
  6 30  1  0
  6 31  1  0
  7 32  1  0
  7 33  1  0
  8 34  1  0
  8 35  1  0
  9 36  1  0
  9 37  1  0
 10 38  1  0
 10 39  1  0
 11 40  1  0
 11 41  1  0
 12 42  1  0
 12 43  1  0
 13 44  1  0
 13 45  1  0
 14 46  1  0
 14 47  1  0
 15 48  1  0
 15 49  1  0
M  CHG  1  18  -1
M  END
>  <meeko>  (9) 
{"is_sidechain": [false], "free_energy": -5.852, "intermolecular_energy": -10.797, "internal_energy": -1.862}

$$$$
palmitate_Nlobe_run01
     RDKit          3D

 49 48  0  0  0  0  0  0  0  0999 V2000
  -32.4980   23.6970    9.5730 C   0  0  0  0  0  0  0  0  0  0  0  0
  -31.7570   24.4450    8.4770 C   0  0  0  0  0  0  0  0  0  0  0  0
  -32.5490   24.5660    7.1720 C   0  0  0  0  0  0  0  0  0  0  0  0
  -32.2540   23.4390    6.1780 C   0  0  0  0  0  0  0  0  0  0  0  0
  -31.4800   22.2670    6.7930 C   0  0  0  0  0  0  0  0  0  0  0  0
  -32.1120   20.8820    6.6220 C   0  0  0  0  0  0  0  0  0  0  0  0
  -31.6060   19.8510    7.6330 C   0  0  0  0  0  0  0  0  0  0  0  0
  -32.4150   18.5540    7.5530 C   0  0  0  0  0  0  0  0  0  0  0  0
  -33.8580   18.7770    8.0100 C   0  0  0  0  0  0  0  0  0  0  0  0
  -33.9740   19.3060    9.4430 C   0  0  0  0  0  0  0  0  0  0  0  0
  -34.5110   20.7350    9.5880 C   0  0  0  0  0  0  0  0  0  0  0  0
  -35.6630   21.0560    8.6320 C   0  0  0  0  0  0  0  0  0  0  0  0
  -35.4280   22.3780    7.9000 C   0  0  0  0  0  0  0  0  0  0  0  0
  -35.7230   22.3110    6.3960 C   0  0  0  0  0  0  0  0  0  0  0  0
  -35.6850   20.9030    5.8040 C   0  0  0  0  0  0  0  0  0  0  0  0
  -35.3280   20.8520    4.3390 C   0  0  0  0  0  0  0  0  0  0  0  0
  -34.2400   21.1900    3.8900 O   0  0  0  0  0  0  0  0  0  0  0  0
  -36.3510   20.4230    3.5620 O   0  0  0  0  0  0  0  0  0  0  0  0
  -32.1504   24.0479   10.5559 H   0  0  0  0  0  0  0  0  0  0  0  0
  -33.5780   23.8830    9.4782 H   0  0  0  0  0  0  0  0  0  0  0  0
  -32.3019   22.6188    9.4782 H   0  0  0  0  0  0  0  0  0  0  0  0
  -31.5293   25.4579    8.8404 H   0  0  0  0  0  0  0  0  0  0  0  0
  -30.8490   23.8671    8.2501 H   0  0  0  0  0  0  0  0  0  0  0  0
  -33.6223   24.5479    7.4120 H   0  0  0  0  0  0  0  0  0  0  0  0
  -32.2472   25.5096    6.6939 H   0  0  0  0  0  0  0  0  0  0  0  0
  -33.2102   23.0588    5.7891 H   0  0  0  0  0  0  0  0  0  0  0  0
  -31.6205   23.8644    5.3857 H   0  0  0  0  0  0  0  0  0  0  0  0
  -30.4829   22.2417    6.3291 H   0  0  0  0  0  0  0  0  0  0  0  0
  -31.4673   22.4557    7.8766 H   0  0  0  0  0  0  0  0  0  0  0  0
  -33.2013   20.9795    6.7397 H   0  0  0  0  0  0  0  0  0  0  0  0
  -31.8311   20.5195    5.6222 H   0  0  0  0  0  0  0  0  0  0  0  0
  -30.5498   19.6287    7.4207 H   0  0  0  0  0  0  0  0  0  0  0  0
  -31.7187   20.2700    8.6438 H   0  0  0  0  0  0  0  0  0  0  0  0
  -32.4186   18.1962    6.5128 H   0  0  0  0  0  0  0  0  0  0  0  0
  -31.9492   17.8098    8.2157 H   0  0  0  0  0  0  0  0  0  0  0  0
  -34.3288   19.5041    7.3320 H   0  0  0  0  0  0  0  0  0  0  0  0
  -34.3581   17.7975    7.9868 H   0  0  0  0  0  0  0  0  0  0  0  0
  -34.6475   18.6351    9.9964 H   0  0  0  0  0  0  0  0  0  0  0  0
  -32.9463   19.3330    9.8344 H   0  0  0  0  0  0  0  0  0  0  0  0
  -34.8674   20.8697   10.6199 H   0  0  0  0  0  0  0  0  0  0  0  0
  -33.6849   21.4172    9.3388 H   0  0  0  0  0  0  0  0  0  0  0  0
  -35.7496   20.2472    7.8915 H   0  0  0  0  0  0  0  0  0  0  0  0
  -36.5874   21.1459    9.2213 H   0  0  0  0  0  0  0  0  0  0  0  0
  -36.0789   23.1434    8.3478 H   0  0  0  0  0  0  0  0  0  0  0  0
  -34.3603   22.6198    8.0077 H   0  0  0  0  0  0  0  0  0  0  0  0
  -36.7258   22.7289    6.2238 H   0  0  0  0  0  0  0  0  0  0  0  0
  -34.9268   22.8818    5.8957 H   0  0  0  0  0  0  0  0  0  0  0  0
  -34.9395   20.3159    6.3604 H   0  0  0  0  0  0  0  0  0  0  0  0
  -36.7037   20.4975    5.8931 H   0  0  0  0  0  0  0  0  0  0  0  0
  1  2  1  0
  2  3  1  0
  3  4  1  0
  4  5  1  0
  5  6  1  0
  6  7  1  0
  7  8  1  0
  8  9  1  0
  9 10  1  0
 10 11  1  0
 11 12  1  0
 12 13  1  0
 13 14  1  0
 14 15  1  0
 15 16  1  0
 16 17  2  0
 16 18  1  0
  1 19  1  0
  1 20  1  0
  1 21  1  0
  2 22  1  0
  2 23  1  0
  3 24  1  0
  3 25  1  0
  4 26  1  0
  4 27  1  0
  5 28  1  0
  5 29  1  0
  6 30  1  0
  6 31  1  0
  7 32  1  0
  7 33  1  0
  8 34  1  0
  8 35  1  0
  9 36  1  0
  9 37  1  0
 10 38  1  0
 10 39  1  0
 11 40  1  0
 11 41  1  0
 12 42  1  0
 12 43  1  0
 13 44  1  0
 13 45  1  0
 14 46  1  0
 14 47  1  0
 15 48  1  0
 15 49  1  0
M  CHG  1  18  -1
M  END
>  <meeko>  (10) 
{"is_sidechain": [false], "free_energy": -5.837, "intermolecular_energy": -10.433, "internal_energy": -2.2}

$$$$
palmitate_Nlobe_run01
     RDKit          3D

 49 48  0  0  0  0  0  0  0  0999 V2000
  -31.8450   24.6400    8.6560 C   0  0  0  0  0  0  0  0  0  0  0  0
  -32.7750   25.1900    7.5860 C   0  0  0  0  0  0  0  0  0  0  0  0
  -33.6460   24.1190    6.9220 C   0  0  0  0  0  0  0  0  0  0  0  0
  -35.0980   24.1320    7.4090 C   0  0  0  0  0  0  0  0  0  0  0  0
  -35.4980   22.8640    8.1740 C   0  0  0  0  0  0  0  0  0  0  0  0
  -34.7630   22.6180    9.4950 C   0  0  0  0  0  0  0  0  0  0  0  0
  -34.1480   21.2210    9.6000 C   0  0  0  0  0  0  0  0  0  0  0  0
  -34.2340   20.4760    8.2660 C   0  0  0  0  0  0  0  0  0  0  0  0
  -32.8790   20.4670    7.5540 C   0  0  0  0  0  0  0  0  0  0  0  0
  -32.9790   20.6660    6.0390 C   0  0  0  0  0  0  0  0  0  0  0  0
  -34.2690   20.1620    5.3810 C   0  0  0  0  0  0  0  0  0  0  0  0
  -35.0490   21.2550    4.6450 C   0  0  0  0  0  0  0  0  0  0  0  0
  -36.5510   20.9690    4.6510 C   0  0  0  0  0  0  0  0  0  0  0  0
  -37.0950   20.5540    6.0240 C   0  0  0  0  0  0  0  0  0  0  0  0
  -38.5620   20.1270    6.0220 C   0  0  0  0  0  0  0  0  0  0  0  0
  -39.4130   20.8150    7.0610 C   0  0  0  0  0  0  0  0  0  0  0  0
  -40.3890   20.3020    7.5930 O   0  0  0  0  0  0  0  0  0  0  0  0
  -39.0030   22.0800    7.3240 O   0  0  0  0  0  0  0  0  0  0  0  0
  -32.2489   24.8789    9.6509 H   0  0  0  0  0  0  0  0  0  0  0  0
  -31.7639   23.5486    8.5456 H   0  0  0  0  0  0  0  0  0  0  0  0
  -30.8495   25.0947    8.5456 H   0  0  0  0  0  0  0  0  0  0  0  0
  -33.4356   25.9372    8.0499 H   0  0  0  0  0  0  0  0  0  0  0  0
  -32.1408   25.6240    6.7990 H   0  0  0  0  0  0  0  0  0  0  0  0
  -33.6406   24.2889    5.8352 H   0  0  0  0  0  0  0  0  0  0  0  0
  -33.2209   23.1406    7.1904 H   0  0  0  0  0  0  0  0  0  0  0  0
  -35.2345   24.9975    8.0740 H   0  0  0  0  0  0  0  0  0  0  0  0
  -35.7383   24.1869    6.5162 H   0  0  0  0  0  0  0  0  0  0  0  0
  -36.5738   22.9289    8.3942 H   0  0  0  0  0  0  0  0  0  0  0  0
  -35.2228   22.0234    7.5200 H   0  0  0  0  0  0  0  0  0  0  0  0
  -33.9574   23.3611    9.5889 H   0  0  0  0  0  0  0  0  0  0  0  0
  -35.5070   22.7055   10.3005 H   0  0  0  0  0  0  0  0  0  0  0  0
  -33.0913   21.3152    9.8907 H   0  0  0  0  0  0  0  0  0  0  0  0
  -34.7087   20.6497   10.3544 H   0  0  0  0  0  0  0  0  0  0  0  0
  -34.5489   19.4388    8.4530 H   0  0  0  0  0  0  0  0  0  0  0  0
  -34.9638   20.9907    7.6237 H   0  0  0  0  0  0  0  0  0  0  0  0
  -32.2622   21.2768    7.9708 H   0  0  0  0  0  0  0  0  0  0  0  0
  -32.4352   19.4742    7.7195 H   0  0  0  0  0  0  0  0  0  0  0  0
  -32.8950   21.7435    5.8344 H   0  0  0  0  0  0  0  0  0  0  0  0
  -32.1681   20.0623    5.6053 H   0  0  0  0  0  0  0  0  0  0  0  0
  -34.0064   19.3754    4.6582 H   0  0  0  0  0  0  0  0  0  0  0  0
  -34.9182   19.7895    6.1871 H   0  0  0  0  0  0  0  0  0  0  0  0
  -34.8665   22.2201    5.1403 H   0  0  0  0  0  0  0  0  0  0  0  0
  -34.7058   21.2813    3.6002 H   0  0  0  0  0  0  0  0  0  0  0  0
  -37.0789   21.8787    4.3290 H   0  0  0  0  0  0  0  0  0  0  0  0
  -36.7194   20.1221    3.9695 H   0  0  0  0  0  0  0  0  0  0  0  0
  -36.4922   19.7105    6.3917 H   0  0  0  0  0  0  0  0  0  0  0  0
  -37.0290   21.4432    6.6682 H   0  0  0  0  0  0  0  0  0  0  0  0
  -38.9835   20.3486    5.0304 H   0  0  0  0  0  0  0  0  0  0  0  0
  -38.5770   19.0541    6.2643 H   0  0  0  0  0  0  0  0  0  0  0  0
  1  2  1  0
  2  3  1  0
  3  4  1  0
  4  5  1  0
  5  6  1  0
  6  7  1  0
  7  8  1  0
  8  9  1  0
  9 10  1  0
 10 11  1  0
 11 12  1  0
 12 13  1  0
 13 14  1  0
 14 15  1  0
 15 16  1  0
 16 17  2  0
 16 18  1  0
  1 19  1  0
  1 20  1  0
  1 21  1  0
  2 22  1  0
  2 23  1  0
  3 24  1  0
  3 25  1  0
  4 26  1  0
  4 27  1  0
  5 28  1  0
  5 29  1  0
  6 30  1  0
  6 31  1  0
  7 32  1  0
  7 33  1  0
  8 34  1  0
  8 35  1  0
  9 36  1  0
  9 37  1  0
 10 38  1  0
 10 39  1  0
 11 40  1  0
 11 41  1  0
 12 42  1  0
 12 43  1  0
 13 44  1  0
 13 45  1  0
 14 46  1  0
 14 47  1  0
 15 48  1  0
 15 49  1  0
M  CHG  1  18  -1
M  END
>  <meeko>  (11) 
{"is_sidechain": [false], "free_energy": -5.834, "intermolecular_energy": -10.361, "internal_energy": -2.267}

$$$$
palmitate_Nlobe_run01
     RDKit          3D

 49 48  0  0  0  0  0  0  0  0999 V2000
  -38.6000   19.7850    6.8380 C   0  0  0  0  0  0  0  0  0  0  0  0
  -37.9220   20.9300    6.1030 C   0  0  0  0  0  0  0  0  0  0  0  0
  -37.1590   20.4880    4.8510 C   0  0  0  0  0  0  0  0  0  0  0  0
  -35.8570   21.2640    4.6300 C   0  0  0  0  0  0  0  0  0  0  0  0
  -34.5960   20.4320    4.8920 C   0  0  0  0  0  0  0  0  0  0  0  0
  -33.3360   21.2200    5.2620 C   0  0  0  0  0  0  0  0  0  0  0  0
  -32.4930   20.5500    6.3480 C   0  0  0  0  0  0  0  0  0  0  0  0
  -31.7650   21.5890    7.2040 C   0  0  0  0  0  0  0  0  0  0  0  0
  -31.8760   22.9850    6.5860 C   0  0  0  0  0  0  0  0  0  0  0  0
  -31.9430   24.1120    7.6220 C   0  0  0  0  0  0  0  0  0  0  0  0
  -33.2420   24.9250    7.6440 C   0  0  0  0  0  0  0  0  0  0  0  0
  -34.3930   24.2610    6.8830 C   0  0  0  0  0  0  0  0  0  0  0  0
  -35.4850   23.7750    7.8370 C   0  0  0  0  0  0  0  0  0  0  0  0
  -35.3370   22.3050    8.2470 C   0  0  0  0  0  0  0  0  0  0  0  0
  -34.6640   22.0890    9.6020 C   0  0  0  0  0  0  0  0  0  0  0  0
  -34.5460   20.6430   10.0160 C   0  0  0  0  0  0  0  0  0  0  0  0
  -34.3160   19.7270    9.2370 O   0  0  0  0  0  0  0  0  0  0  0  0
  -34.7540   20.4560   11.3420 O   0  0  0  0  0  0  0  0  0  0  0  0
  -38.5080   19.9403    7.9231 H   0  0  0  0  0  0  0  0  0  0  0  0
  -39.6641   19.7507    6.5614 H   0  0  0  0  0  0  0  0  0  0  0  0
  -38.1185   18.8355    6.5614 H   0  0  0  0  0  0  0  0  0  0  0  0
  -38.6926   21.6553    5.8028 H   0  0  0  0  0  0  0  0  0  0  0  0
  -37.1845   21.3651    6.7936 H   0  0  0  0  0  0  0  0  0  0  0  0
  -36.9164   19.4196    4.9489 H   0  0  0  0  0  0  0  0  0  0  0  0
  -37.8084   20.6878    3.9859 H   0  0  0  0  0  0  0  0  0  0  0  0
  -35.8329   21.6135    3.5873 H   0  0  0  0  0  0  0  0  0  0  0  0
  -35.8505   22.0959    5.3496 H   0  0  0  0  0  0  0  0  0  0  0  0
  -34.8151   19.7403    5.7187 H   0  0  0  0  0  0  0  0  0  0  0  0
  -34.3653   19.9352    3.9381 H   0  0  0  0  0  0  0  0  0  0  0  0
  -32.7169   21.3302    4.3594 H   0  0  0  0  0  0  0  0  0  0  0  0
  -33.6673   22.1895    5.6624 H   0  0  0  0  0  0  0  0  0  0  0  0
  -33.1511   19.9504    6.9941 H   0  0  0  0  0  0  0  0  0  0  0  0
  -31.7411   19.9118    5.8608 H   0  0  0  0  0  0  0  0  0  0  0  0
  -32.2121   21.6040    8.2089 H   0  0  0  0  0  0  0  0  0  0  0  0
  -30.7013   21.3141    7.2591 H   0  0  0  0  0  0  0  0  0  0  0  0
  -30.9970   23.1528    5.9463 H   0  0  0  0  0  0  0  0  0  0  0  0
  -32.8182   23.0123    6.0189 H   0  0  0  0  0  0  0  0  0  0  0  0
  -31.8095   23.6631    8.6173 H   0  0  0  0  0  0  0  0  0  0  0  0
  -31.1520   24.8226    7.3403 H   0  0  0  0  0  0  0  0  0  0  0  0
  -33.5498   25.0606    8.6913 H   0  0  0  0  0  0  0  0  0  0  0  0
  -33.0328   25.8815    7.1426 H   0  0  0  0  0  0  0  0  0  0  0  0
  -34.8274   24.9903    6.1834 H   0  0  0  0  0  0  0  0  0  0  0  0
  -33.9938   23.3908    6.3413 H   0  0  0  0  0  0  0  0  0  0  0  0
  -35.4525   24.3938    8.7459 H   0  0  0  0  0  0  0  0  0  0  0  0
  -36.4419   23.8643    7.3019 H   0  0  0  0  0  0  0  0  0  0  0  0
  -36.3408   21.8568    8.2867 H   0  0  0  0  0  0  0  0  0  0  0  0
  -34.6852   21.8351    7.4958 H   0  0  0  0  0  0  0  0  0  0  0  0
  -33.6518   22.5172    9.5555 H   0  0  0  0  0  0  0  0  0  0  0  0
  -35.3030   22.5789   10.3515 H   0  0  0  0  0  0  0  0  0  0  0  0
  1  2  1  0
  2  3  1  0
  3  4  1  0
  4  5  1  0
  5  6  1  0
  6  7  1  0
  7  8  1  0
  8  9  1  0
  9 10  1  0
 10 11  1  0
 11 12  1  0
 12 13  1  0
 13 14  1  0
 14 15  1  0
 15 16  1  0
 16 17  2  0
 16 18  1  0
  1 19  1  0
  1 20  1  0
  1 21  1  0
  2 22  1  0
  2 23  1  0
  3 24  1  0
  3 25  1  0
  4 26  1  0
  4 27  1  0
  5 28  1  0
  5 29  1  0
  6 30  1  0
  6 31  1  0
  7 32  1  0
  7 33  1  0
  8 34  1  0
  8 35  1  0
  9 36  1  0
  9 37  1  0
 10 38  1  0
 10 39  1  0
 11 40  1  0
 11 41  1  0
 12 42  1  0
 12 43  1  0
 13 44  1  0
 13 45  1  0
 14 46  1  0
 14 47  1  0
 15 48  1  0
 15 49  1  0
M  CHG  1  18  -1
M  END
>  <meeko>  (12) 
{"is_sidechain": [false], "free_energy": -5.825, "intermolecular_energy": -10.293, "internal_energy": -2.317}

$$$$
palmitate_Nlobe_run01
     RDKit          3D

 49 48  0  0  0  0  0  0  0  0999 V2000
  -34.5000   20.3410    9.0860 C   0  0  0  0  0  0  0  0  0  0  0  0
  -34.4890   21.4530   10.1220 C   0  0  0  0  0  0  0  0  0  0  0  0
  -34.8290   22.8310    9.5470 C   0  0  0  0  0  0  0  0  0  0  0  0
  -35.5740   22.7620    8.2110 C   0  0  0  0  0  0  0  0  0  0  0  0
  -35.0810   23.7870    7.1810 C   0  0  0  0  0  0  0  0  0  0  0  0
  -33.8430   24.5960    7.5790 C   0  0  0  0  0  0  0  0  0  0  0  0
  -32.5750   24.1790    6.8320 C   0  0  0  0  0  0  0  0  0  0  0  0
  -31.7830   23.1360    7.6240 C   0  0  0  0  0  0  0  0  0  0  0  0
  -31.8140   21.7750    6.9240 C   0  0  0  0  0  0  0  0  0  0  0  0
  -32.4300   21.8190    5.5220 C   0  0  0  0  0  0  0  0  0  0  0  0
  -32.9840   20.4910    4.9920 C   0  0  0  0  0  0  0  0  0  0  0  0
  -34.4310   20.2210    5.4110 C   0  0  0  0  0  0  0  0  0  0  0  0
  -35.4040   21.1560    4.6910 C   0  0  0  0  0  0  0  0  0  0  0  0
  -36.8320   20.6070    4.5970 C   0  0  0  0  0  0  0  0  0  0  0  0
  -37.5990   20.6030    5.9190 C   0  0  0  0  0  0  0  0  0  0  0  0
  -39.0960   20.7150    5.7710 C   0  0  0  0  0  0  0  0  0  0  0  0
  -39.7520   20.0770    4.9580 O   0  0  0  0  0  0  0  0  0  0  0  0
  -39.6420   21.6250    6.6140 O   0  0  0  0  0  0  0  0  0  0  0  0
  -34.5096   19.3658    9.5949 H   0  0  0  0  0  0  0  0  0  0  0  0
  -35.3973   20.4351    8.4567 H   0  0  0  0  0  0  0  0  0  0  0  0
  -33.6011   20.4173    8.4567 H   0  0  0  0  0  0  0  0  0  0  0  0
  -35.2266   21.2097   10.9009 H   0  0  0  0  0  0  0  0  0  0  0  0
  -33.4650   21.5133   10.5192 H   0  0  0  0  0  0  0  0  0  0  0  0
  -35.4604   23.3658   10.2718 H   0  0  0  0  0  0  0  0  0  0  0  0
  -33.8775   23.3515    9.3633 H   0  0  0  0  0  0  0  0  0  0  0  0
  -35.4415   21.7543    7.7902 H   0  0  0  0  0  0  0  0  0  0  0  0
  -36.6296   22.9928    8.4171 H   0  0  0  0  0  0  0  0  0  0  0  0
  -34.8451   23.2452    6.2532 H   0  0  0  0  0  0  0  0  0  0  0  0
  -35.8946   24.5203    7.0793 H   0  0  0  0  0  0  0  0  0  0  0  0
  -34.0382   25.6577    7.3677 H   0  0  0  0  0  0  0  0  0  0  0  0
  -33.6646   24.4091    8.6482 H   0  0  0  0  0  0  0  0  0  0  0  0
  -32.8565   23.7521    5.8581 H   0  0  0  0  0  0  0  0  0  0  0  0
  -31.9419   25.0684    6.6976 H   0  0  0  0  0  0  0  0  0  0  0  0
  -30.7389   23.4700    7.7147 H   0  0  0  0  0  0  0  0  0  0  0  0
  -32.2414   23.0290    8.6182 H   0  0  0  0  0  0  0  0  0  0  0  0
  -30.7818   21.4045    6.8386 H   0  0  0  0  0  0  0  0  0  0  0  0
  -32.4474   21.1137    7.5335 H   0  0  0  0  0  0  0  0  0  0  0  0
  -33.2556   22.5457    5.5393 H   0  0  0  0  0  0  0  0  0  0  0  0
  -31.6075   22.0903    4.8438 H   0  0  0  0  0  0  0  0  0  0  0  0
  -32.9375   20.5084    3.8931 H   0  0  0  0  0  0  0  0  0  0  0  0
  -32.3677   19.6887    5.4237 H   0  0  0  0  0  0  0  0  0  0  0  0
  -34.6866   19.1798    5.1647 H   0  0  0  0  0  0  0  0  0  0  0  0
  -34.5170   20.3984    6.4932 H   0  0  0  0  0  0  0  0  0  0  0  0
  -35.4345   22.1113    5.2355 H   0  0  0  0  0  0  0  0  0  0  0  0
  -35.0358   21.2711    3.6609 H   0  0  0  0  0  0  0  0  0  0  0  0
  -37.3905   21.2242    3.8779 H   0  0  0  0  0  0  0  0  0  0  0  0
  -36.7427   19.5561    4.2845 H   0  0  0  0  0  0  0  0  0  0  0  0
  -37.3745   19.6629    6.4442 H   0  0  0  0  0  0  0  0  0  0  0  0
  -37.2709   21.4936    6.4751 H   0  0  0  0  0  0  0  0  0  0  0  0
  1  2  1  0
  2  3  1  0
  3  4  1  0
  4  5  1  0
  5  6  1  0
  6  7  1  0
  7  8  1  0
  8  9  1  0
  9 10  1  0
 10 11  1  0
 11 12  1  0
 12 13  1  0
 13 14  1  0
 14 15  1  0
 15 16  1  0
 16 17  2  0
 16 18  1  0
  1 19  1  0
  1 20  1  0
  1 21  1  0
  2 22  1  0
  2 23  1  0
  3 24  1  0
  3 25  1  0
  4 26  1  0
  4 27  1  0
  5 28  1  0
  5 29  1  0
  6 30  1  0
  6 31  1  0
  7 32  1  0
  7 33  1  0
  8 34  1  0
  8 35  1  0
  9 36  1  0
  9 37  1  0
 10 38  1  0
 10 39  1  0
 11 40  1  0
 11 41  1  0
 12 42  1  0
 12 43  1  0
 13 44  1  0
 13 45  1  0
 14 46  1  0
 14 47  1  0
 15 48  1  0
 15 49  1  0
M  CHG  1  18  -1
M  END
>  <meeko>  (13) 
{"is_sidechain": [false], "free_energy": -5.813, "intermolecular_energy": -10.269, "internal_energy": -2.319}

$$$$
palmitate_Nlobe_run01
     RDKit          3D

 49 48  0  0  0  0  0  0  0  0999 V2000
  -34.2900   21.8830   10.6770 C   0  0  0  0  0  0  0  0  0  0  0  0
  -35.0230   20.8560    9.8290 C   0  0  0  0  0  0  0  0  0  0  0  0
  -34.1620   19.6480    9.4470 C   0  0  0  0  0  0  0  0  0  0  0  0
  -33.8200   19.5950    7.9550 C   0  0  0  0  0  0  0  0  0  0  0  0
  -32.4120   20.1080    7.6310 C   0  0  0  0  0  0  0  0  0  0  0  0
  -32.2680   20.8940    6.3250 C   0  0  0  0  0  0  0  0  0  0  0  0
  -31.7790   22.3300    6.5270 C   0  0  0  0  0  0  0  0  0  0  0  0
  -31.9330   22.7670    7.9850 C   0  0  0  0  0  0  0  0  0  0  0  0
  -32.3660   24.2320    8.0770 C   0  0  0  0  0  0  0  0  0  0  0  0
  -33.5820   24.5680    7.2080 C   0  0  0  0  0  0  0  0  0  0  0  0
  -34.9000   23.8970    7.6110 C   0  0  0  0  0  0  0  0  0  0  0  0
  -35.3690   22.8260    6.6220 C   0  0  0  0  0  0  0  0  0  0  0  0
  -36.7060   22.2190    7.0510 C   0  0  0  0  0  0  0  0  0  0  0  0
  -36.9870   20.8450    6.4320 C   0  0  0  0  0  0  0  0  0  0  0  0
  -38.0970   20.0530    7.1230 C   0  0  0  0  0  0  0  0  0  0  0  0
  -39.4910   20.5570    6.8400 C   0  0  0  0  0  0  0  0  0  0  0  0
  -40.3870   20.5900    7.6740 O   0  0  0  0  0  0  0  0  0  0  0  0
  -39.6610   20.9400    5.5510 O   0  0  0  0  0  0  0  0  0  0  0  0
  -34.4493   21.6598   11.7423 H   0  0  0  0  0  0  0  0  0  0  0  0
  -33.2141   21.8444   10.4512 H   0  0  0  0  0  0  0  0  0  0  0  0
  -34.6762   22.8879   10.4512 H   0  0  0  0  0  0  0  0  0  0  0  0
  -35.8949   20.4963   10.3951 H   0  0  0  0  0  0  0  0  0  0  0  0
  -35.3093   21.3567    8.8924 H   0  0  0  0  0  0  0  0  0  0  0  0
  -33.2234   19.6934   10.0189 H   0  0  0  0  0  0  0  0  0  0  0  0
  -34.7459   18.7453    9.6795 H   0  0  0  0  0  0  0  0  0  0  0  0
  -33.8963   18.5509    7.6173 H   0  0  0  0  0  0  0  0  0  0  0  0
  -34.5316   20.2545    7.4366 H   0  0  0  0  0  0  0  0  0  0  0  0
  -32.0948   20.7638    8.4552 H   0  0  0  0  0  0  0  0  0  0  0  0
  -31.7903   19.2091    7.5062 H   0  0  0  0  0  0  0  0  0  0  0  0
  -31.5482   20.3686    5.6801 H   0  0  0  0  0  0  0  0  0  0  0  0
  -33.2684   20.9538    5.8716 H   0  0  0  0  0  0  0  0  0  0  0  0
  -30.7176   22.3907    6.2444 H   0  0  0  0  0  0  0  0  0  0  0  0
  -32.3867   22.9967    5.8975 H   0  0  0  0  0  0  0  0  0  0  0  0
  -32.6922   22.1366    8.4710 H   0  0  0  0  0  0  0  0  0  0  0  0
  -30.9608   22.6573    8.4877 H   0  0  0  0  0  0  0  0  0  0  0  0
  -32.6149   24.4559    9.1248 H   0  0  0  0  0  0  0  0  0  0  0  0
  -31.5273   24.8400    7.7070 H   0  0  0  0  0  0  0  0  0  0  0  0
  -33.7329   25.6569    7.2464 H   0  0  0  0  0  0  0  0  0  0  0  0
  -33.3465   24.1821    6.2052 H   0  0  0  0  0  0  0  0  0  0  0  0
  -34.7637   23.4257    8.5955 H   0  0  0  0  0  0  0  0  0  0  0  0
  -35.6705   24.6819    7.6266 H   0  0  0  0  0  0  0  0  0  0  0  0
  -35.4855   23.2828    5.6281 H   0  0  0  0  0  0  0  0  0  0  0  0
  -34.6164   22.0241    6.5966 H   0  0  0  0  0  0  0  0  0  0  0  0
  -36.7035   22.1125    8.1458 H   0  0  0  0  0  0  0  0  0  0  0  0
  -37.4954   22.8982    6.6967 H   0  0  0  0  0  0  0  0  0  0  0  0
  -37.2748   20.9942    5.3808 H   0  0  0  0  0  0  0  0  0  0  0  0
  -36.0650   20.2561    6.5464 H   0  0  0  0  0  0  0  0  0  0  0  0
  -38.0342   19.0075    6.7867 H   0  0  0  0  0  0  0  0  0  0  0  0
  -37.9361   20.1656    8.2053 H   0  0  0  0  0  0  0  0  0  0  0  0
  1  2  1  0
  2  3  1  0
  3  4  1  0
  4  5  1  0
  5  6  1  0
  6  7  1  0
  7  8  1  0
  8  9  1  0
  9 10  1  0
 10 11  1  0
 11 12  1  0
 12 13  1  0
 13 14  1  0
 14 15  1  0
 15 16  1  0
 16 17  2  0
 16 18  1  0
  1 19  1  0
  1 20  1  0
  1 21  1  0
  2 22  1  0
  2 23  1  0
  3 24  1  0
  3 25  1  0
  4 26  1  0
  4 27  1  0
  5 28  1  0
  5 29  1  0
  6 30  1  0
  6 31  1  0
  7 32  1  0
  7 33  1  0
  8 34  1  0
  8 35  1  0
  9 36  1  0
  9 37  1  0
 10 38  1  0
 10 39  1  0
 11 40  1  0
 11 41  1  0
 12 42  1  0
 12 43  1  0
 13 44  1  0
 13 45  1  0
 14 46  1  0
 14 47  1  0
 15 48  1  0
 15 49  1  0
M  CHG  1  18  -1
M  END
>  <meeko>  (14) 
{"is_sidechain": [false], "free_energy": -5.805, "intermolecular_energy": -10.179, "internal_energy": -2.395}

$$$$
palmitate_Nlobe_run01
     RDKit          3D

 49 48  0  0  0  0  0  0  0  0999 V2000
  -32.0120   24.7540    8.5910 C   0  0  0  0  0  0  0  0  0  0  0  0
  -32.2250   24.5840    7.0950 C   0  0  0  0  0  0  0  0  0  0  0  0
  -32.2690   23.1210    6.6440 C   0  0  0  0  0  0  0  0  0  0  0  0
  -31.8860   22.1340    7.7520 C   0  0  0  0  0  0  0  0  0  0  0  0
  -31.5770   20.7240    7.2350 C   0  0  0  0  0  0  0  0  0  0  0  0
  -32.7030   19.6960    7.3750 C   0  0  0  0  0  0  0  0  0  0  0  0
  -33.0240   18.9600    6.0720 C   0  0  0  0  0  0  0  0  0  0  0  0
  -32.5440   19.7550    4.8550 C   0  0  0  0  0  0  0  0  0  0  0  0
  -33.6900   20.5630    4.2400 C   0  0  0  0  0  0  0  0  0  0  0  0
  -34.9960   20.4800    5.0360 C   0  0  0  0  0  0  0  0  0  0  0  0
  -35.6590   21.8190    5.3770 C   0  0  0  0  0  0  0  0  0  0  0  0
  -36.1920   21.8910    6.8100 C   0  0  0  0  0  0  0  0  0  0  0  0
  -35.8890   23.2470    7.4500 C   0  0  0  0  0  0  0  0  0  0  0  0
  -35.3340   23.1470    8.8760 C   0  0  0  0  0  0  0  0  0  0  0  0
  -35.0910   21.7190    9.3630 C   0  0  0  0  0  0  0  0  0  0  0  0
  -34.4490   21.6250   10.7250 C   0  0  0  0  0  0  0  0  0  0  0  0
  -33.7850   22.5210   11.2290 O   0  0  0  0  0  0  0  0  0  0  0  0
  -34.6560   20.4270   11.3240 O   0  0  0  0  0  0  0  0  0  0  0  0
  -32.7581   24.1585    9.1376 H   0  0  0  0  0  0  0  0  0  0  0  0
  -31.0017   24.4113    8.8588 H   0  0  0  0  0  0  0  0  0  0  0  0
  -32.1222   25.8152    8.8588 H   0  0  0  0  0  0  0  0  0  0  0  0
  -33.1785   25.0605    6.8232 H   0  0  0  0  0  0  0  0  0  0  0  0
  -31.3654   25.0508    6.5918 H   0  0  0  0  0  0  0  0  0  0  0  0
  -33.2906   22.8897    6.3080 H   0  0  0  0  0  0  0  0  0  0  0  0
  -31.5314   23.0065    5.8360 H   0  0  0  0  0  0  0  0  0  0  0  0
  -30.9941   22.5189    8.2681 H   0  0  0  0  0  0  0  0  0  0  0  0
  -32.7528   22.0495    8.4239 H   0  0  0  0  0  0  0  0  0  0  0  0
  -31.3258   20.8047    6.1671 H   0  0  0  0  0  0  0  0  0  0  0  0
  -30.7551   20.3511    7.8639 H   0  0  0  0  0  0  0  0  0  0  0  0
  -32.4046   18.9535    8.1297 H   0  0  0  0  0  0  0  0  0  0  0  0
  -33.6093   20.2469    7.6668 H   0  0  0  0  0  0  0  0  0  0  0  0
  -32.5240   17.9803    6.0807 H   0  0  0  0  0  0  0  0  0  0  0  0
  -34.1148   18.8378    6.0004 H   0  0  0  0  0  0  0  0  0  0  0  0
  -31.7455   20.4440    5.1676 H   0  0  0  0  0  0  0  0  0  0  0  0
  -32.1695   19.0479    4.1002 H   0  0  0  0  0  0  0  0  0  0  0  0
  -33.3820   21.6176    4.1863 H   0  0  0  0  0  0  0  0  0  0  0  0
  -33.8900   20.1341    3.2470 H   0  0  0  0  0  0  0  0  0  0  0  0
  -35.7129   19.8895    4.4466 H   0  0  0  0  0  0  0  0  0  0  0  0
  -34.7275   20.0267    6.0016 H   0  0  0  0  0  0  0  0  0  0  0  0
  -34.9166   22.6193    5.2414 H   0  0  0  0  0  0  0  0  0  0  0  0
  -36.5228   21.9318    4.7053 H   0  0  0  0  0  0  0  0  0  0  0  0
  -37.2811   21.7376    6.7950 H   0  0  0  0  0  0  0  0  0  0  0  0
  -35.6961   21.1090    7.4038 H   0  0  0  0  0  0  0  0  0  0  0  0
  -35.1485   23.7679    6.8252 H   0  0  0  0  0  0  0  0  0  0  0  0
  -36.8425   23.7916    7.5143 H   0  0  0  0  0  0  0  0  0  0  0  0
  -34.3777   23.6894    8.9112 H   0  0  0  0  0  0  0  0  0  0  0  0
  -36.0979   23.5781    9.5398 H   0  0  0  0  0  0  0  0  0  0  0  0
  -36.0599   21.1997    9.4029 H   0  0  0  0  0  0  0  0  0  0  0  0
  -34.3874   21.2608    8.6524 H   0  0  0  0  0  0  0  0  0  0  0  0
  1  2  1  0
  2  3  1  0
  3  4  1  0
  4  5  1  0
  5  6  1  0
  6  7  1  0
  7  8  1  0
  8  9  1  0
  9 10  1  0
 10 11  1  0
 11 12  1  0
 12 13  1  0
 13 14  1  0
 14 15  1  0
 15 16  1  0
 16 17  2  0
 16 18  1  0
  1 19  1  0
  1 20  1  0
  1 21  1  0
  2 22  1  0
  2 23  1  0
  3 24  1  0
  3 25  1  0
  4 26  1  0
  4 27  1  0
  5 28  1  0
  5 29  1  0
  6 30  1  0
  6 31  1  0
  7 32  1  0
  7 33  1  0
  8 34  1  0
  8 35  1  0
  9 36  1  0
  9 37  1  0
 10 38  1  0
 10 39  1  0
 11 40  1  0
 11 41  1  0
 12 42  1  0
 12 43  1  0
 13 44  1  0
 13 45  1  0
 14 46  1  0
 14 47  1  0
 15 48  1  0
 15 49  1  0
M  CHG  1  18  -1
M  END
>  <meeko>  (15) 
{"is_sidechain": [false], "free_energy": -5.781, "intermolecular_energy": -10.133, "internal_energy": -2.399}

$$$$
palmitate_Nlobe_run01
     RDKit          3D

 49 48  0  0  0  0  0  0  0  0999 V2000
  -32.8540   25.3390    7.3110 C   0  0  0  0  0  0  0  0  0  0  0  0
  -32.0050   24.0870    7.4670 C   0  0  0  0  0  0  0  0  0  0  0  0
  -32.1240   23.1150    6.2900 C   0  0  0  0  0  0  0  0  0  0  0  0
  -32.1280   21.6440    6.7170 C   0  0  0  0  0  0  0  0  0  0  0  0
  -32.5600   20.6840    5.6020 C   0  0  0  0  0  0  0  0  0  0  0  0
  -33.4990   19.5480    6.0200 C   0  0  0  0  0  0  0  0  0  0  0  0
  -33.1850   18.9740    7.4030 C   0  0  0  0  0  0  0  0  0  0  0  0
  -34.3660   19.1570    8.3590 C   0  0  0  0  0  0  0  0  0  0  0  0
  -34.0220   20.1490    9.4740 C   0  0  0  0  0  0  0  0  0  0  0  0
  -35.0980   21.2140    9.7020 C   0  0  0  0  0  0  0  0  0  0  0  0
  -34.8750   22.5540    8.9900 C   0  0  0  0  0  0  0  0  0  0  0  0
  -36.0010   22.9270    8.0230 C   0  0  0  0  0  0  0  0  0  0  0  0
  -35.7840   22.3000    6.6450 C   0  0  0  0  0  0  0  0  0  0  0  0
  -36.8010   21.2060    6.2970 C   0  0  0  0  0  0  0  0  0  0  0  0
  -37.9330   21.0470    7.3120 C   0  0  0  0  0  0  0  0  0  0  0  0
  -39.2840   20.7700    6.7000 C   0  0  0  0  0  0  0  0  0  0  0  0
  -39.5190   20.8450    5.5010 O   0  0  0  0  0  0  0  0  0  0  0  0
  -40.2270   20.4610    7.6230 O   0  0  0  0  0  0  0  0  0  0  0  0
  -33.1184   25.7289    8.3050 H   0  0  0  0  0  0  0  0  0  0  0  0
  -32.2855   26.1009    6.7576 H   0  0  0  0  0  0  0  0  0  0  0  0
  -33.7722   25.0928    6.7576 H   0  0  0  0  0  0  0  0  0  0  0  0
  -30.9520   24.3905    7.5622 H   0  0  0  0  0  0  0  0  0  0  0  0
  -32.3705   23.5586    8.3599 H   0  0  0  0  0  0  0  0  0  0  0  0
  -33.0624   23.3262    5.7563 H   0  0  0  0  0  0  0  0  0  0  0  0
  -31.2410   23.2666    5.6518 H   0  0  0  0  0  0  0  0  0  0  0  0
  -31.1113   21.3715    7.0364 H   0  0  0  0  0  0  0  0  0  0  0  0
  -32.8617   21.5455    7.5307 H   0  0  0  0  0  0  0  0  0  0  0  0
  -33.0710   21.2754    4.8280 H   0  0  0  0  0  0  0  0  0  0  0  0
  -31.6369   20.1943    5.2583 H   0  0  0  0  0  0  0  0  0  0  0  0
  -34.5293   19.9333    6.0287 H   0  0  0  0  0  0  0  0  0  0  0  0
  -33.3643   18.7332    5.2934 H   0  0  0  0  0  0  0  0  0  0  0  0
  -32.9659   17.9005    7.3047 H   0  0  0  0  0  0  0  0  0  0  0  0
  -32.3174   19.5108    7.8143 H   0  0  0  0  0  0  0  0  0  0  0  0
  -35.2303   19.5364    7.7942 H   0  0  0  0  0  0  0  0  0  0  0  0
  -34.6006   18.1843    8.8159 H   0  0  0  0  0  0  0  0  0  0  0  0
  -33.8858   19.5867   10.4096 H   0  0  0  0  0  0  0  0  0  0  0  0
  -33.1074   20.6763    9.1651 H   0  0  0  0  0  0  0  0  0  0  0  0
  -36.0576   20.8034    9.3549 H   0  0  0  0  0  0  0  0  0  0  0  0
  -35.0700   21.4402   10.7781 H   0  0  0  0  0  0  0  0  0  0  0  0
  -34.7944   23.3436    9.7516 H   0  0  0  0  0  0  0  0  0  0  0  0
  -33.9563   22.4541    8.3933 H   0  0  0  0  0  0  0  0  0  0  0  0
  -36.9573   22.5694    8.4323 H   0  0  0  0  0  0  0  0  0  0  0  0
  -36.0102   24.0209    7.9079 H   0  0  0  0  0  0  0  0  0  0  0  0
  -35.8556   23.0941    5.8872 H   0  0  0  0  0  0  0  0  0  0  0  0
  -34.7929   21.8232    6.6619 H   0  0  0  0  0  0  0  0  0  0  0  0
  -37.2463   21.4487    5.3209 H   0  0  0  0  0  0  0  0  0  0  0  0
  -36.2484   20.2549    6.2930 H   0  0  0  0  0  0  0  0  0  0  0  0
  -37.6804   20.2112    7.9811 H   0  0  0  0  0  0  0  0  0  0  0  0
  -38.0185   22.0081    7.8402 H   0  0  0  0  0  0  0  0  0  0  0  0
  1  2  1  0
  2  3  1  0
  3  4  1  0
  4  5  1  0
  5  6  1  0
  6  7  1  0
  7  8  1  0
  8  9  1  0
  9 10  1  0
 10 11  1  0
 11 12  1  0
 12 13  1  0
 13 14  1  0
 14 15  1  0
 15 16  1  0
 16 17  2  0
 16 18  1  0
  1 19  1  0
  1 20  1  0
  1 21  1  0
  2 22  1  0
  2 23  1  0
  3 24  1  0
  3 25  1  0
  4 26  1  0
  4 27  1  0
  5 28  1  0
  5 29  1  0
  6 30  1  0
  6 31  1  0
  7 32  1  0
  7 33  1  0
  8 34  1  0
  8 35  1  0
  9 36  1  0
  9 37  1  0
 10 38  1  0
 10 39  1  0
 11 40  1  0
 11 41  1  0
 12 42  1  0
 12 43  1  0
 13 44  1  0
 13 45  1  0
 14 46  1  0
 14 47  1  0
 15 48  1  0
 15 49  1  0
M  CHG  1  18  -1
M  END
>  <meeko>  (16) 
{"is_sidechain": [false], "free_energy": -5.77, "intermolecular_energy": -9.994, "internal_energy": -2.518}

$$$$
palmitate_Nlobe_run01
     RDKit          3D

 49 48  0  0  0  0  0  0  0  0999 V2000
  -36.7840   20.6700    4.6440 C   0  0  0  0  0  0  0  0  0  0  0  0
  -36.4500   20.6690    6.1270 C   0  0  0  0  0  0  0  0  0  0  0  0
  -36.9310   21.9220    6.8650 C   0  0  0  0  0  0  0  0  0  0  0  0
  -35.9100   22.4610    7.8720 C   0  0  0  0  0  0  0  0  0  0  0  0
  -35.4310   21.4090    8.8800 C   0  0  0  0  0  0  0  0  0  0  0  0
  -33.9950   21.5710    9.3870 C   0  0  0  0  0  0  0  0  0  0  0  0
  -33.6420   23.0070    9.7770 C   0  0  0  0  0  0  0  0  0  0  0  0
  -32.3350   23.4550    9.1190 C   0  0  0  0  0  0  0  0  0  0  0  0
  -32.5710   24.6370    8.1760 C   0  0  0  0  0  0  0  0  0  0  0  0
  -32.2610   24.3250    6.7090 C   0  0  0  0  0  0  0  0  0  0  0  0
  -31.8390   22.8820    6.4060 C   0  0  0  0  0  0  0  0  0  0  0  0
  -32.9910   21.9950    5.9270 C   0  0  0  0  0  0  0  0  0  0  0  0
  -32.4970   20.9130    4.9640 C   0  0  0  0  0  0  0  0  0  0  0  0
  -33.1720   19.5510    5.1690 C   0  0  0  0  0  0  0  0  0  0  0  0
  -33.2250   19.0820    6.6220 C   0  0  0  0  0  0  0  0  0  0  0  0
  -31.9370   18.4830    7.1310 C   0  0  0  0  0  0  0  0  0  0  0  0
  -31.5190   18.6310    8.2720 O   0  0  0  0  0  0  0  0  0  0  0  0
  -31.2680   17.7860    6.1800 O   0  0  0  0  0  0  0  0  0  0  0  0
  -37.8763   20.6733    4.5142 H   0  0  0  0  0  0  0  0  0  0  0  0
  -36.3560   21.5669    4.1724 H   0  0  0  0  0  0  0  0  0  0  0  0
  -36.3614   19.7706    4.1724 H   0  0  0  0  0  0  0  0  0  0  0  0
  -36.9230   19.7901    6.5893 H   0  0  0  0  0  0  0  0  0  0  0  0
  -35.3534   20.6466    6.2105 H   0  0  0  0  0  0  0  0  0  0  0  0
  -37.1372   22.7070    6.1226 H   0  0  0  0  0  0  0  0  0  0  0  0
  -37.8310   21.6412    7.4318 H   0  0  0  0  0  0  0  0  0  0  0  0
  -35.0368   22.8341    7.3167 H   0  0  0  0  0  0  0  0  0  0  0  0
  -36.4098   23.2552    8.4460 H   0  0  0  0  0  0  0  0  0  0  0  0
  -36.1019   21.4472    9.7509 H   0  0  0  0  0  0  0  0  0  0  0  0
  -35.4489   20.4507    8.3402 H   0  0  0  0  0  0  0  0  0  0  0  0
  -33.8634   20.9284   10.2700 H   0  0  0  0  0  0  0  0  0  0  0  0
  -33.3270   21.2877    8.5602 H   0  0  0  0  0  0  0  0  0  0  0  0
  -34.4535   23.6760    9.4546 H   0  0  0  0  0  0  0  0  0  0  0  0
  -33.5142   23.0495   10.8687 H   0  0  0  0  0  0  0  0  0  0  0  0
  -31.6233   23.7562    9.9018 H   0  0  0  0  0  0  0  0  0  0  0  0
  -31.9324   22.6153    8.5335 H   0  0  0  0  0  0  0  0  0  0  0  0
  -33.6267   24.9365    8.2519 H   0  0  0  0  0  0  0  0  0  0  0  0
  -31.8843   25.4383    8.4865 H   0  0  0  0  0  0  0  0  0  0  0  0
  -33.1641   24.5428    6.1199 H   0  0  0  0  0  0  0  0  0  0  0  0
  -31.3939   24.9498    6.4485 H   0  0  0  0  0  0  0  0  0  0  0  0
  -31.0669   22.9025    5.6228 H   0  0  0  0  0  0  0  0  0  0  0  0
  -31.4684   22.4496    7.3471 H   0  0  0  0  0  0  0  0  0  0  0  0
  -33.4581   21.5129    6.7984 H   0  0  0  0  0  0  0  0  0  0  0  0
  -33.7177   22.6270    5.3955 H   0  0  0  0  0  0  0  0  0  0  0  0
  -32.6948   21.2473    3.9349 H   0  0  0  0  0  0  0  0  0  0  0  0
  -31.4238   20.7730    5.1606 H   0  0  0  0  0  0  0  0  0  0  0  0
  -34.2032   19.6185    4.7920 H   0  0  0  0  0  0  0  0  0  0  0  0
  -32.5622   18.8148    4.6249 H   0  0  0  0  0  0  0  0  0  0  0  0
  -33.4755   19.9469    7.2538 H   0  0  0  0  0  0  0  0  0  0  0  0
  -33.9814   18.2846    6.6671 H   0  0  0  0  0  0  0  0  0  0  0  0
  1  2  1  0
  2  3  1  0
  3  4  1  0
  4  5  1  0
  5  6  1  0
  6  7  1  0
  7  8  1  0
  8  9  1  0
  9 10  1  0
 10 11  1  0
 11 12  1  0
 12 13  1  0
 13 14  1  0
 14 15  1  0
 15 16  1  0
 16 17  2  0
 16 18  1  0
  1 19  1  0
  1 20  1  0
  1 21  1  0
  2 22  1  0
  2 23  1  0
  3 24  1  0
  3 25  1  0
  4 26  1  0
  4 27  1  0
  5 28  1  0
  5 29  1  0
  6 30  1  0
  6 31  1  0
  7 32  1  0
  7 33  1  0
  8 34  1  0
  8 35  1  0
  9 36  1  0
  9 37  1  0
 10 38  1  0
 10 39  1  0
 11 40  1  0
 11 41  1  0
 12 42  1  0
 12 43  1  0
 13 44  1  0
 13 45  1  0
 14 46  1  0
 14 47  1  0
 15 48  1  0
 15 49  1  0
M  CHG  1  18  -1
M  END
>  <meeko>  (17) 
{"is_sidechain": [false], "free_energy": -5.733, "intermolecular_energy": -10.286, "internal_energy": -2.158}

$$$$
palmitate_Nlobe_run01
     RDKit          3D

 49 48  0  0  0  0  0  0  0  0999 V2000
  -38.2190   20.2960    6.3570 C   0  0  0  0  0  0  0  0  0  0  0  0
  -38.2050   21.4730    7.3190 C   0  0  0  0  0  0  0  0  0  0  0  0
  -36.9080   22.2860    7.2770 C   0  0  0  0  0  0  0  0  0  0  0  0
  -35.9060   21.7720    6.2390 C   0  0  0  0  0  0  0  0  0  0  0  0
  -34.6200   22.6050    6.1650 C   0  0  0  0  0  0  0  0  0  0  0  0
  -34.5370   23.7980    7.1230 C   0  0  0  0  0  0  0  0  0  0  0  0
  -33.1920   24.5240    7.0780 C   0  0  0  0  0  0  0  0  0  0  0  0
  -32.4870   24.4700    8.4360 C   0  0  0  0  0  0  0  0  0  0  0  0
  -32.6020   23.0770    9.0590 C   0  0  0  0  0  0  0  0  0  0  0  0
  -33.4280   23.0460   10.3480 C   0  0  0  0  0  0  0  0  0  0  0  0
  -34.7230   22.2270   10.2940 C   0  0  0  0  0  0  0  0  0  0  0  0
  -34.4990   20.7180   10.4250 C   0  0  0  0  0  0  0  0  0  0  0  0
  -34.5810   20.0220    9.0660 C   0  0  0  0  0  0  0  0  0  0  0  0
  -33.3020   19.2660    8.6820 C   0  0  0  0  0  0  0  0  0  0  0  0
  -32.8960   19.4120    7.2150 C   0  0  0  0  0  0  0  0  0  0  0  0
  -31.8550   18.4220    6.7560 C   0  0  0  0  0  0  0  0  0  0  0  0
  -30.9720   17.9750    7.4770 O   0  0  0  0  0  0  0  0  0  0  0  0
  -31.9750   18.1010    5.4450 O   0  0  0  0  0  0  0  0  0  0  0  0
  -38.2302   19.3559    6.9280 H   0  0  0  0  0  0  0  0  0  0  0  0
  -39.1166   20.3509    5.7235 H   0  0  0  0  0  0  0  0  0  0  0  0
  -37.3204   20.3295    5.7235 H   0  0  0  0  0  0  0  0  0  0  0  0
  -39.0416   22.1401    7.0640 H   0  0  0  0  0  0  0  0  0  0  0  0
  -38.2929   21.0596    8.3346 H   0  0  0  0  0  0  0  0  0  0  0  0
  -37.1575   23.3296    7.0350 H   0  0  0  0  0  0  0  0  0  0  0  0
  -36.4321   22.1927    8.2643 H   0  0  0  0  0  0  0  0  0  0  0  0
  -35.6363   20.7375    6.4979 H   0  0  0  0  0  0  0  0  0  0  0  0
  -36.3940   21.8423    5.2557 H   0  0  0  0  0  0  0  0  0  0  0  0
  -33.7735   21.9376    6.3843 H   0  0  0  0  0  0  0  0  0  0  0  0
  -34.6030   23.0354    5.1528 H   0  0  0  0  0  0  0  0  0  0  0  0
  -35.3283   24.5142    6.8566 H   0  0  0  0  0  0  0  0  0  0  0  0
  -34.6576   23.4032    8.1426 H   0  0  0  0  0  0  0  0  0  0  0  0
  -32.5515   24.0460    6.3221 H   0  0  0  0  0  0  0  0  0  0  0  0
  -33.3740   25.5782    6.8221 H   0  0  0  0  0  0  0  0  0  0  0  0
  -31.4237   24.7161    8.2992 H   0  0  0  0  0  0  0  0  0  0  0  0
  -32.9672   25.1955    9.1091 H   0  0  0  0  0  0  0  0  0  0  0  0
  -33.0759   22.4069    8.3266 H   0  0  0  0  0  0  0  0  0  0  0  0
  -31.5830   22.7572    9.3222 H   0  0  0  0  0  0  0  0  0  0  0  0
  -32.7957   22.6247   11.1434 H   0  0  0  0  0  0  0  0  0  0  0  0
  -33.7405   24.0855   10.5264 H   0  0  0  0  0  0  0  0  0  0  0  0
  -35.3762   22.5544   11.1162 H   0  0  0  0  0  0  0  0  0  0  0  0
  -35.1747   22.4018    9.3064 H   0  0  0  0  0  0  0  0  0  0  0  0
  -33.5039   20.5402   10.8587 H   0  0  0  0  0  0  0  0  0  0  0  0
  -35.2865   20.3060   11.0732 H   0  0  0  0  0  0  0  0  0  0  0  0
  -35.4139   19.3040    9.0932 H   0  0  0  0  0  0  0  0  0  0  0  0
  -34.7289   20.8079    8.3107 H   0  0  0  0  0  0  0  0  0  0  0  0
  -32.4787   19.6444    9.3057 H   0  0  0  0  0  0  0  0  0  0  0  0
  -33.5088   18.1980    8.8448 H   0  0  0  0  0  0  0  0  0  0  0  0
  -33.7945   19.2793    6.5944 H   0  0  0  0  0  0  0  0  0  0  0  0
  -32.4472   20.4109    7.1110 H   0  0  0  0  0  0  0  0  0  0  0  0
  1  2  1  0
  2  3  1  0
  3  4  1  0
  4  5  1  0
  5  6  1  0
  6  7  1  0
  7  8  1  0
  8  9  1  0
  9 10  1  0
 10 11  1  0
 11 12  1  0
 12 13  1  0
 13 14  1  0
 14 15  1  0
 15 16  1  0
 16 17  2  0
 16 18  1  0
  1 19  1  0
  1 20  1  0
  1 21  1  0
  2 22  1  0
  2 23  1  0
  3 24  1  0
  3 25  1  0
  4 26  1  0
  4 27  1  0
  5 28  1  0
  5 29  1  0
  6 30  1  0
  6 31  1  0
  7 32  1  0
  7 33  1  0
  8 34  1  0
  8 35  1  0
  9 36  1  0
  9 37  1  0
 10 38  1  0
 10 39  1  0
 11 40  1  0
 11 41  1  0
 12 42  1  0
 12 43  1  0
 13 44  1  0
 13 45  1  0
 14 46  1  0
 14 47  1  0
 15 48  1  0
 15 49  1  0
M  CHG  1  18  -1
M  END
>  <meeko>  (18) 
{"is_sidechain": [false], "free_energy": -5.7, "intermolecular_energy": -10.485, "internal_energy": -1.899}

$$$$
palmitate_Nlobe_run01
     RDKit          3D

 49 48  0  0  0  0  0  0  0  0999 V2000
  -38.2510   21.1540    7.1090 C   0  0  0  0  0  0  0  0  0  0  0  0
  -37.1920   20.4360    6.2890 C   0  0  0  0  0  0  0  0  0  0  0  0
  -36.2320   21.3830    5.5630 C   0  0  0  0  0  0  0  0  0  0  0  0
  -35.3350   20.6720    4.5450 C   0  0  0  0  0  0  0  0  0  0  0  0
  -33.8500   21.0300    4.6820 C   0  0  0  0  0  0  0  0  0  0  0  0
  -32.8620   20.0620    4.0230 C   0  0  0  0  0  0  0  0  0  0  0  0
  -32.3810   18.9500    4.9570 C   0  0  0  0  0  0  0  0  0  0  0  0
  -32.3550   19.4230    6.4130 C   0  0  0  0  0  0  0  0  0  0  0  0
  -33.2510   18.5460    7.2910 C   0  0  0  0  0  0  0  0  0  0  0  0
  -34.2250   19.3430    8.1640 C   0  0  0  0  0  0  0  0  0  0  0  0
  -33.8150   20.7870    8.4770 C   0  0  0  0  0  0  0  0  0  0  0  0
  -34.8360   21.5410    9.3340 C   0  0  0  0  0  0  0  0  0  0  0  0
  -35.1980   22.8900    8.7110 C   0  0  0  0  0  0  0  0  0  0  0  0
  -34.2820   23.3000    7.5510 C   0  0  0  0  0  0  0  0  0  0  0  0
  -33.3520   24.4730    7.8610 C   0  0  0  0  0  0  0  0  0  0  0  0
  -31.9000   24.0930    8.0110 C   0  0  0  0  0  0  0  0  0  0  0  0
  -31.1050   24.7000    8.7180 O   0  0  0  0  0  0  0  0  0  0  0  0
  -31.5530   23.0250    7.2530 O   0  0  0  0  0  0  0  0  0  0  0  0
  -38.0433   21.0132    8.1800 H   0  0  0  0  0  0  0  0  0  0  0  0
  -38.2341   22.2276    6.8703 H   0  0  0  0  0  0  0  0  0  0  0  0
  -39.2421   20.7409    6.8703 H   0  0  0  0  0  0  0  0  0  0  0  0
  -36.6048   19.7956    6.9636 H   0  0  0  0  0  0  0  0  0  0  0  0
  -37.7197   19.8573    5.5166 H   0  0  0  0  0  0  0  0  0  0  0  0
  -36.8251   22.1439    5.0345 H   0  0  0  0  0  0  0  0  0  0  0  0
  -35.5734   21.8264    6.3243 H   0  0  0  0  0  0  0  0  0  0  0  0
  -35.4454   19.5862    4.6824 H   0  0  0  0  0  0  0  0  0  0  0  0
  -35.6561   21.0012    3.5457 H   0  0  0  0  0  0  0  0  0  0  0  0
  -33.7001   22.0223    4.2315 H   0  0  0  0  0  0  0  0  0  0  0  0
  -33.6329   20.9873    5.7595 H   0  0  0  0  0  0  0  0  0  0  0  0
  -33.3547   19.5989    3.1554 H   0  0  0  0  0  0  0  0  0  0  0  0
  -31.9769   20.6489    3.7365 H   0  0  0  0  0  0  0  0  0  0  0  0
  -33.0614   18.0899    4.8712 H   0  0  0  0  0  0  0  0  0  0  0  0
  -31.3592   18.6667    4.6643 H   0  0  0  0  0  0  0  0  0  0  0  0
  -31.3226   19.3725    6.7892 H   0  0  0  0  0  0  0  0  0  0  0  0
  -32.7295   20.4565    6.4524 H   0  0  0  0  0  0  0  0  0  0  0  0
  -33.8345   17.8811    6.6372 H   0  0  0  0  0  0  0  0  0  0  0  0
  -32.5897   17.9896    7.9716 H   0  0  0  0  0  0  0  0  0  0  0  0
  -35.1950   19.3726    7.6462 H   0  0  0  0  0  0  0  0  0  0  0  0
  -34.2498   18.8235    9.1333 H   0  0  0  0  0  0  0  0  0  0  0  0
  -32.8558   20.7675    9.0151 H   0  0  0  0  0  0  0  0  0  0  0  0
  -33.7444   21.3182    7.5164 H   0  0  0  0  0  0  0  0  0  0  0  0
  -35.7475   20.9319    9.4238 H   0  0  0  0  0  0  0  0  0  0  0  0
  -34.3906   21.7242   10.3230 H   0  0  0  0  0  0  0  0  0  0  0  0
  -36.2301   22.8328    8.3348 H   0  0  0  0  0  0  0  0  0  0  0  0
  -35.0791   23.6494    9.4979 H   0  0  0  0  0  0  0  0  0  0  0  0
  -33.6622   22.4327    7.2797 H   0  0  0  0  0  0  0  0  0  0  0  0
  -34.9407   23.6306    6.7344 H   0  0  0  0  0  0  0  0  0  0  0  0
  -33.4340   25.2030    7.0422 H   0  0  0  0  0  0  0  0  0  0  0  0
  -33.6723   24.8801    8.8314 H   0  0  0  0  0  0  0  0  0  0  0  0
  1  2  1  0
  2  3  1  0
  3  4  1  0
  4  5  1  0
  5  6  1  0
  6  7  1  0
  7  8  1  0
  8  9  1  0
  9 10  1  0
 10 11  1  0
 11 12  1  0
 12 13  1  0
 13 14  1  0
 14 15  1  0
 15 16  1  0
 16 17  2  0
 16 18  1  0
  1 19  1  0
  1 20  1  0
  1 21  1  0
  2 22  1  0
  2 23  1  0
  3 24  1  0
  3 25  1  0
  4 26  1  0
  4 27  1  0
  5 28  1  0
  5 29  1  0
  6 30  1  0
  6 31  1  0
  7 32  1  0
  7 33  1  0
  8 34  1  0
  8 35  1  0
  9 36  1  0
  9 37  1  0
 10 38  1  0
 10 39  1  0
 11 40  1  0
 11 41  1  0
 12 42  1  0
 12 43  1  0
 13 44  1  0
 13 45  1  0
 14 46  1  0
 14 47  1  0
 15 48  1  0
 15 49  1  0
M  CHG  1  18  -1
M  END
>  <meeko>  (19) 
{"is_sidechain": [false], "free_energy": -5.698, "intermolecular_energy": -10.09, "internal_energy": -2.29}

$$$$
palmitate_Nlobe_run01
     RDKit          3D

 49 48  0  0  0  0  0  0  0  0999 V2000
  -39.6760   22.4380    7.4930 C   0  0  0  0  0  0  0  0  0  0  0  0
  -39.6500   20.9230    7.6150 C   0  0  0  0  0  0  0  0  0  0  0  0
  -38.4150   20.2770    6.9810 C   0  0  0  0  0  0  0  0  0  0  0  0
  -37.2370   21.2440    6.8290 C   0  0  0  0  0  0  0  0  0  0  0  0
  -36.0820   20.9590    7.7980 C   0  0  0  0  0  0  0  0  0  0  0  0
  -35.4380   22.1850    8.4520 C   0  0  0  0  0  0  0  0  0  0  0  0
  -35.9230   23.5140    7.8720 C   0  0  0  0  0  0  0  0  0  0  0  0
  -34.9340   24.0620    6.8400 C   0  0  0  0  0  0  0  0  0  0  0  0
  -33.8050   24.8400    7.5210 C   0  0  0  0  0  0  0  0  0  0  0  0
  -32.4130   24.2570    7.2620 C   0  0  0  0  0  0  0  0  0  0  0  0
  -31.9430   23.1820    8.2480 C   0  0  0  0  0  0  0  0  0  0  0  0
  -31.7940   21.7950    7.6170 C   0  0  0  0  0  0  0  0  0  0  0  0
  -32.1450   21.8190    6.1290 C   0  0  0  0  0  0  0  0  0  0  0  0
  -32.6590   20.4770    5.5930 C   0  0  0  0  0  0  0  0  0  0  0  0
  -32.9250   19.4250    6.6690 C   0  0  0  0  0  0  0  0  0  0  0  0
  -31.8110   18.4250    6.8530 C   0  0  0  0  0  0  0  0  0  0  0  0
  -31.2770   17.8210    5.9310 O   0  0  0  0  0  0  0  0  0  0  0  0
  -31.4810   18.2360    8.1540 O   0  0  0  0  0  0  0  0  0  0  0  0
  -39.6837   22.8866    8.4973 H   0  0  0  0  0  0  0  0  0  0  0  0
  -38.7835   22.7772    6.9467 H   0  0  0  0  0  0  0  0  0  0  0  0
  -40.5796   22.7464    6.9467 H   0  0  0  0  0  0  0  0  0  0  0  0
  -39.6703   20.6599    8.6829 H   0  0  0  0  0  0  0  0  0  0  0  0
  -40.5275   20.5411    7.0727 H   0  0  0  0  0  0  0  0  0  0  0  0
  -38.0969   19.4358    7.6143 H   0  0  0  0  0  0  0  0  0  0  0  0
  -38.7007   19.9496    5.9704 H   0  0  0  0  0  0  0  0  0  0  0  0
  -36.8550   21.1684    5.8002 H   0  0  0  0  0  0  0  0  0  0  0  0
  -37.6132   22.2512    7.0615 H   0  0  0  0  0  0  0  0  0  0  0  0
  -36.4672   20.3126    8.6004 H   0  0  0  0  0  0  0  0  0  0  0  0
  -35.2908   20.4968    7.1894 H   0  0  0  0  0  0  0  0  0  0  0  0
  -35.6716   22.1687    9.5268 H   0  0  0  0  0  0  0  0  0  0  0  0
  -34.3570   22.1237    8.2578 H   0  0  0  0  0  0  0  0  0  0  0  0
  -36.8983   23.3593    7.3873 H   0  0  0  0  0  0  0  0  0  0  0  0
  -36.0085   24.2414    8.6927 H   0  0  0  0  0  0  0  0  0  0  0  0
  -34.5024   23.2230    6.2745 H   0  0  0  0  0  0  0  0  0  0  0  0
  -35.4729   24.7443    6.1662 H   0  0  0  0  0  0  0  0  0  0  0  0
  -33.8228   25.8750    7.1490 H   0  0  0  0  0  0  0  0  0  0  0  0
  -33.9819   24.7808    8.6051 H   0  0  0  0  0  0  0  0  0  0  0  0
  -32.4155   23.8131    6.2555 H   0  0  0  0  0  0  0  0  0  0  0  0
  -31.7121   25.0964    7.3807 H   0  0  0  0  0  0  0  0  0  0  0  0
  -30.9671   23.4858    8.6546 H   0  0  0  0  0  0  0  0  0  0  0  0
  -32.7141   23.1004    9.0282 H   0  0  0  0  0  0  0  0  0  0  0  0
  -30.7533   21.4584    7.7339 H   0  0  0  0  0  0  0  0  0  0  0  0
  -32.4859   21.1071    8.1251 H   0  0  0  0  0  0  0  0  0  0  0  0
  -32.9248   22.5781    5.9687 H   0  0  0  0  0  0  0  0  0  0  0  0
  -31.2170   22.0475    5.5844 H   0  0  0  0  0  0  0  0  0  0  0  0
  -33.5990   20.6604    5.0520 H   0  0  0  0  0  0  0  0  0  0  0  0
  -31.8642   20.0721    4.9492 H   0  0  0  0  0  0  0  0  0  0  0  0
  -33.0826   19.9441    7.6259 H   0  0  0  0  0  0  0  0  0  0  0  0
  -33.8063   18.8553    6.3393 H   0  0  0  0  0  0  0  0  0  0  0  0
  1  2  1  0
  2  3  1  0
  3  4  1  0
  4  5  1  0
  5  6  1  0
  6  7  1  0
  7  8  1  0
  8  9  1  0
  9 10  1  0
 10 11  1  0
 11 12  1  0
 12 13  1  0
 13 14  1  0
 14 15  1  0
 15 16  1  0
 16 17  2  0
 16 18  1  0
  1 19  1  0
  1 20  1  0
  1 21  1  0
  2 22  1  0
  2 23  1  0
  3 24  1  0
  3 25  1  0
  4 26  1  0
  4 27  1  0
  5 28  1  0
  5 29  1  0
  6 30  1  0
  6 31  1  0
  7 32  1  0
  7 33  1  0
  8 34  1  0
  8 35  1  0
  9 36  1  0
  9 37  1  0
 10 38  1  0
 10 39  1  0
 11 40  1  0
 11 41  1  0
 12 42  1  0
 12 43  1  0
 13 44  1  0
 13 45  1  0
 14 46  1  0
 14 47  1  0
 15 48  1  0
 15 49  1  0
M  CHG  1  18  -1
M  END
>  <meeko>  (20) 
{"is_sidechain": [false], "free_energy": -5.673, "intermolecular_energy": -10.514, "internal_energy": -1.82}

$$$$
