palmitate_Nlobe_run02
     RDKit          3D

 49 48  0  0  0  0  0  0  0  0999 V2000
  -33.3250   22.9240   10.2470 C   0  0  0  0  0  0  0  0  0  0  0  0
  -32.5150   23.0690    8.9690 C   0  0  0  0  0  0  0  0  0  0  0  0
  -32.1770   24.5210    8.6180 C   0  0  0  0  0  0  0  0  0  0  0  0
  -33.0540   25.0950    7.5020 C   0  0  0  0  0  0  0  0  0  0  0  0
  -34.1210   24.1160    6.9980 C   0  0  0  0  0  0  0  0  0  0  0  0
  -35.5130   24.2620    7.6190 C   0  0  0  0  0  0  0  0  0  0  0  0
  -36.3120   22.9580    7.6410 C   0  0  0  0  0  0  0  0  0  0  0  0
  -35.8120   21.9830    6.5720 C   0  0  0  0  0  0  0  0  0  0  0  0
  -35.8030   20.5460    7.0990 C   0  0  0  0  0  0  0  0  0  0  0  0
  -34.7440   20.2940    8.1770 C   0  0  0  0  0  0  0  0  0  0  0  0
  -34.0100   18.9500    8.0920 C   0  0  0  0  0  0  0  0  0  0  0  0
  -32.4930   19.0690    8.2670 C   0  0  0  0  0  0  0  0  0  0  0  0
  -31.7530   18.6960    6.9810 C   0  0  0  0  0  0  0  0  0  0  0  0
  -32.6810   18.4330    5.7890 C   0  0  0  0  0  0  0  0  0  0  0  0
  -32.3750   19.2740    4.5500 C   0  0  0  0  0  0  0  0  0  0  0  0
  -32.8700   20.6970    4.6240 C   0  0  0  0  0  0  0  0  0  0  0  0
  -32.4680   21.5180    5.4380 O   0  0  0  0  0  0  0  0  0  0  0  0
  -33.8370   20.9660    3.7140 O   0  0  0  0  0  0  0  0  0  0  0  0
  -32.6621   23.0427   11.1167 H   0  0  0  0  0  0  0  0  0  0  0  0
  -34.1078   23.6963   10.2746 H   0  0  0  0  0  0  0  0  0  0  0  0
  -33.7913   21.9281   10.2746 H   0  0  0  0  0  0  0  0  0  0  0  0
  -31.5739   22.5122    9.0888 H   0  0  0  0  0  0  0  0  0  0  0  0
  -33.1333   22.6747    8.1491 H   0  0  0  0  0  0  0  0  0  0  0  0
  -32.3104   25.1379    9.5189 H   0  0  0  0  0  0  0  0  0  0  0  0
  -31.1385   24.5349    8.2556 H   0  0  0  0  0  0  0  0  0  0  0  0
  -33.5593   25.9944    7.8839 H   0  0  0  0  0  0  0  0  0  0  0  0
  -32.3919   25.3176    6.6523 H   0  0  0  0  0  0  0  0  0  0  0  0
  -34.2207   24.2569    5.9116 H   0  0  0  0  0  0  0  0  0  0  0  0
  -33.7686   23.1163    7.2919 H   0  0  0  0  0  0  0  0  0  0  0  0
  -35.3970   24.6166    8.6538 H   0  0  0  0  0  0  0  0  0  0  0  0
  -36.0727   24.9734    6.9940 H   0  0  0  0  0  0  0  0  0  0  0  0
  -36.2069   22.4897    8.6308 H   0  0  0  0  0  0  0  0  0  0  0  0
  -37.3662   23.1925    7.4322 H   0  0  0  0  0  0  0  0  0  0  0  0
  -36.4741   22.0402    5.6954 H   0  0  0  0  0  0  0  0  0  0  0  0
  -34.7837   22.2615    6.2981 H   0  0  0  0  0  0  0  0  0  0  0  0
  -36.7927   20.3260    7.5258 H   0  0  0  0  0  0  0  0  0  0  0  0
  -35.5591   19.8924    6.2486 H   0  0  0  0  0  0  0  0  0  0  0  0
  -33.9924   21.0939    8.1049 H   0  0  0  0  0  0  0  0  0  0  0  0
  -35.2892   20.2762    9.1322 H   0  0  0  0  0  0  0  0  0  0  0  0
  -34.4005   18.2898    8.8804 H   0  0  0  0  0  0  0  0  0  0  0  0
  -34.1884   18.5476    7.0839 H   0  0  0  0  0  0  0  0  0  0  0  0
  -32.2438   20.1062    8.5356 H   0  0  0  0  0  0  0  0  0  0  0  0
  -32.1801   18.3749    9.0609 H   0  0  0  0  0  0  0  0  0  0  0  0
  -31.0759   19.5221    6.7181 H   0  0  0  0  0  0  0  0  0  0  0  0
  -31.2139   17.7583    7.1812 H   0  0  0  0  0  0  0  0  0  0  0  0
  -32.5943   17.3715    5.5137 H   0  0  0  0  0  0  0  0  0  0  0  0
  -33.6943   18.7117    6.1139 H   0  0  0  0  0  0  0  0  0  0  0  0
  -31.2841   19.2962    4.4103 H   0  0  0  0  0  0  0  0  0  0  0  0
  -32.9057   18.8006    3.7108 H   0  0  0  0  0  0  0  0  0  0  0  0
  1  2  1  0
  2  3  1  0
  3  4  1  0
  4  5  1  0
  5  6  1  0
  6  7  1  0
  7  8  1  0
  8  9  1  0
  9 10  1  0
 10 11  1  0
 11 12  1  0
 12 13  1  0
 13 14  1  0
 14 15  1  0
 15 16  1  0
 16 17  2  0
 16 18  1  0
  1 19  1  0
  1 20  1  0
  1 21  1  0
  2 22  1  0
  2 23  1  0
  3 24  1  0
  3 25  1  0
  4 26  1  0
  4 27  1  0
  5 28  1  0
  5 29  1  0
  6 30  1  0
  6 31  1  0
  7 32  1  0
  7 33  1  0
  8 34  1  0
  8 35  1  0
  9 36  1  0
  9 37  1  0
 10 38  1  0
 10 39  1  0
 11 40  1  0
 11 41  1  0
 12 42  1  0
 12 43  1  0
 13 44  1  0
 13 45  1  0
 14 46  1  0
 14 47  1  0
 15 48  1  0
 15 49  1  0
M  CHG  1  18  -1
M  END
>  <meeko>  (1) 
{"is_sidechain": [false], "free_energy": -6.057, "intermolecular_energy": -11.014, "internal_energy": -1.904}

$$$$
palmitate_Nlobe_run02
     RDKit          3D

 49 48  0  0  0  0  0  0  0  0999 V2000
  -34.1850   18.3780   12.4680 C   0  0  0  0  0  0  0  0  0  0  0  0
  -34.2570   19.2270   11.2090 C   0  0  0  0  0  0  0  0  0  0  0  0
  -34.6630   20.6800   11.4710 C   0  0  0  0  0  0  0  0  0  0  0  0
  -34.5920   21.5630   10.2210 C   0  0  0  0  0  0  0  0  0  0  0  0
  -33.6530   22.7650   10.3730 C   0  0  0  0  0  0  0  0  0  0  0  0
  -32.5310   22.8760    9.3350 C   0  0  0  0  0  0  0  0  0  0  0  0
  -32.0920   24.3160    9.0630 C   0  0  0  0  0  0  0  0  0  0  0  0
  -32.0460   24.6060    7.5600 C   0  0  0  0  0  0  0  0  0  0  0  0
  -33.3650   25.2140    7.0780 C   0  0  0  0  0  0  0  0  0  0  0  0
  -34.3930   24.1720    6.6260 C   0  0  0  0  0  0  0  0  0  0  0  0
  -35.6020   23.9800    7.5500 C   0  0  0  0  0  0  0  0  0  0  0  0
  -36.3690   22.6800    7.2910 C   0  0  0  0  0  0  0  0  0  0  0  0
  -35.6610   21.8130    6.2490 C   0  0  0  0  0  0  0  0  0  0  0  0
  -34.9580   20.5850    6.8410 C   0  0  0  0  0  0  0  0  0  0  0  0
  -33.8730   19.9840    5.9490 C   0  0  0  0  0  0  0  0  0  0  0  0
  -33.2180   20.9710    5.0140 C   0  0  0  0  0  0  0  0  0  0  0  0
  -33.5180   21.0960    3.8340 O   0  0  0  0  0  0  0  0  0  0  0  0
  -32.2330   21.6860    5.6090 O   0  0  0  0  0  0  0  0  0  0  0  0
  -34.2402   19.0290   13.3529 H   0  0  0  0  0  0  0  0  0  0  0  0
  -35.0263   17.6694   12.4810 H   0  0  0  0  0  0  0  0  0  0  0  0
  -33.2364   17.8212   12.4810 H   0  0  0  0  0  0  0  0  0  0  0  0
  -33.2666   19.2237   10.7304 H   0  0  0  0  0  0  0  0  0  0  0  0
  -35.0338   18.7861   10.5670 H   0  0  0  0  0  0  0  0  0  0  0  0
  -35.6961   20.6914   11.8485 H   0  0  0  0  0  0  0  0  0  0  0  0
  -33.9507   21.0910   12.2016 H   0  0  0  0  0  0  0  0  0  0  0  0
  -34.2373   20.9484    9.3805 H   0  0  0  0  0  0  0  0  0  0  0  0
  -35.6026   21.9620   10.0494 H   0  0  0  0  0  0  0  0  0  0  0  0
  -34.2625   23.6785   10.3089 H   0  0  0  0  0  0  0  0  0  0  0  0
  -33.1491   22.6273   11.3411 H   0  0  0  0  0  0  0  0  0  0  0  0
  -31.6614   22.3100    9.7003 H   0  0  0  0  0  0  0  0  0  0  0  0
  -32.9236   22.4733    8.3897 H   0  0  0  0  0  0  0  0  0  0  0  0
  -32.8051   25.0047    9.5397 H   0  0  0  0  0  0  0  0  0  0  0  0
  -31.0822   24.4564    9.4761 H   0  0  0  0  0  0  0  0  0  0  0  0
  -31.2281   25.3124    7.3548 H   0  0  0  0  0  0  0  0  0  0  0  0
  -31.8806   23.6590    7.0253 H   0  0  0  0  0  0  0  0  0  0  0  0
  -33.8008   25.7971    7.9027 H   0  0  0  0  0  0  0  0  0  0  0  0
  -33.1314   25.8370    6.2020 H   0  0  0  0  0  0  0  0  0  0  0  0
  -34.7688   24.4757    5.6378 H   0  0  0  0  0  0  0  0  0  0  0  0
  -33.8613   23.2090    6.6270 H   0  0  0  0  0  0  0  0  0  0  0  0
  -35.2468   23.9731    8.5911 H   0  0  0  0  0  0  0  0  0  0  0  0
  -36.2960   24.8100    7.3512 H   0  0  0  0  0  0  0  0  0  0  0  0
  -36.4466   22.1165    8.2325 H   0  0  0  0  0  0  0  0  0  0  0  0
  -37.3671   22.9374    6.9070 H   0  0  0  0  0  0  0  0  0  0  0  0
  -36.4084   21.4670    5.5199 H   0  0  0  0  0  0  0  0  0  0  0  0
  -34.8816   22.4376    5.7882 H   0  0  0  0  0  0  0  0  0  0  0  0
  -34.4945   20.8807    7.7938 H   0  0  0  0  0  0  0  0  0  0  0  0
  -35.7297   19.8101    6.9598 H   0  0  0  0  0  0  0  0  0  0  0  0
  -33.0943   19.5542    6.5963 H   0  0  0  0  0  0  0  0  0  0  0  0
  -34.3673   19.2322    5.3162 H   0  0  0  0  0  0  0  0  0  0  0  0
  1  2  1  0
  2  3  1  0
  3  4  1  0
  4  5  1  0
  5  6  1  0
  6  7  1  0
  7  8  1  0
  8  9  1  0
  9 10  1  0
 10 11  1  0
 11 12  1  0
 12 13  1  0
 13 14  1  0
 14 15  1  0
 15 16  1  0
 16 17  2  0
 16 18  1  0
  1 19  1  0
  1 20  1  0
  1 21  1  0
  2 22  1  0
  2 23  1  0
  3 24  1  0
  3 25  1  0
  4 26  1  0
  4 27  1  0
  5 28  1  0
  5 29  1  0
  6 30  1  0
  6 31  1  0
  7 32  1  0
  7 33  1  0
  8 34  1  0
  8 35  1  0
  9 36  1  0
  9 37  1  0
 10 38  1  0
 10 39  1  0
 11 40  1  0
 11 41  1  0
 12 42  1  0
 12 43  1  0
 13 44  1  0
 13 45  1  0
 14 46  1  0
 14 47  1  0
 15 48  1  0
 15 49  1  0
M  CHG  1  18  -1
M  END
>  <meeko>  (2) 
{"is_sidechain": [false], "free_energy": -6.055, "intermolecular_energy": -11.289, "internal_energy": -1.625}

$$$$
palmitate_Nlobe_run02
     RDKit          3D

 49 48  0  0  0  0  0  0  0  0999 V2000
  -32.7370   24.9660    7.0110 C   0  0  0  0  0  0  0  0  0  0  0  0
  -32.1450   24.8150    8.4040 C   0  0  0  0  0  0  0  0  0  0  0  0
  -32.3950   23.4410    9.0320 C   0  0  0  0  0  0  0  0  0  0  0  0
  -33.8820   23.1120    9.1960 C   0  0  0  0  0  0  0  0  0  0  0  0
  -34.1600   22.0510   10.2680 C   0  0  0  0  0  0  0  0  0  0  0  0
  -34.9860   20.8430    9.8180 C   0  0  0  0  0  0  0  0  0  0  0  0
  -34.1930   19.5350    9.7940 C   0  0  0  0  0  0  0  0  0  0  0  0
  -34.0500   19.0000    8.3670 C   0  0  0  0  0  0  0  0  0  0  0  0
  -32.6940   19.3830    7.7690 C   0  0  0  0  0  0  0  0  0  0  0  0
  -32.7740   20.5170    6.7420 C   0  0  0  0  0  0  0  0  0  0  0  0
  -34.0420   20.5530    5.8810 C   0  0  0  0  0  0  0  0  0  0  0  0
  -34.6890   21.9380    5.8020 C   0  0  0  0  0  0  0  0  0  0  0  0
  -36.0430   21.9620    6.5120 C   0  0  0  0  0  0  0  0  0  0  0  0
  -36.8860   20.7030    6.2760 C   0  0  0  0  0  0  0  0  0  0  0  0
  -38.0090   20.4920    7.2910 C   0  0  0  0  0  0  0  0  0  0  0  0
  -39.3960   20.5030    6.6970 C   0  0  0  0  0  0  0  0  0  0  0  0
  -39.6280   20.6710    5.5070 O   0  0  0  0  0  0  0  0  0  0  0  0
  -40.3690   20.3410    7.6270 O   0  0  0  0  0  0  0  0  0  0  0  0
  -33.8000   25.2371    7.0918 H   0  0  0  0  0  0  0  0  0  0  0  0
  -32.1976   25.7553    6.4669 H   0  0  0  0  0  0  0  0  0  0  0  0
  -32.6415   24.0147    6.4669 H   0  0  0  0  0  0  0  0  0  0  0  0
  -31.0586   24.9750    8.3391 H   0  0  0  0  0  0  0  0  0  0  0  0
  -32.6403   25.5578    9.0467 H   0  0  0  0  0  0  0  0  0  0  0  0
  -31.9365   22.6747    8.3896 H   0  0  0  0  0  0  0  0  0  0  0  0
  -31.9516   23.4570   10.0386 H   0  0  0  0  0  0  0  0  0  0  0  0
  -34.4140   24.0341    9.4728 H   0  0  0  0  0  0  0  0  0  0  0  0
  -34.2298   22.7011    8.2367 H   0  0  0  0  0  0  0  0  0  0  0  0
  -33.1912   21.6792   10.6329 H   0  0  0  0  0  0  0  0  0  0  0  0
  -34.7660   22.5557   11.0348 H   0  0  0  0  0  0  0  0  0  0  0  0
  -35.8332   20.7237   10.5094 H   0  0  0  0  0  0  0  0  0  0  0  0
  -35.3132   21.0414    8.7867 H   0  0  0  0  0  0  0  0  0  0  0  0
  -33.1914   19.7150   10.2117 H   0  0  0  0  0  0  0  0  0  0  0  0
  -34.7348   18.7883   10.3931 H   0  0  0  0  0  0  0  0  0  0  0  0
  -34.1387   17.9037    8.3836 H   0  0  0  0  0  0  0  0  0  0  0  0
  -34.8433   19.4424    7.7465 H   0  0  0  0  0  0  0  0  0  0  0  0
  -32.0307   19.7009    8.5869 H   0  0  0  0  0  0  0  0  0  0  0  0
  -32.3127   18.4965    7.2411 H   0  0  0  0  0  0  0  0  0  0  0  0
  -32.7096   21.4703    7.2870 H   0  0  0  0  0  0  0  0  0  0  0  0
  -31.9437   20.3432    6.0417 H   0  0  0  0  0  0  0  0  0  0  0  0
  -33.7797   20.2329    4.8618 H   0  0  0  0  0  0  0  0  0  0  0  0
  -34.7732   19.8815    6.3548 H   0  0  0  0  0  0  0  0  0  0  0  0
  -34.0223   22.6723    6.2777 H   0  0  0  0  0  0  0  0  0  0  0  0
  -34.8491   22.1856    4.7423 H   0  0  0  0  0  0  0  0  0  0  0  0
  -35.8664   22.0639    7.5929 H   0  0  0  0  0  0  0  0  0  0  0  0
  -36.6083   22.8095    6.0969 H   0  0  0  0  0  0  0  0  0  0  0  0
  -37.3366   20.7740    5.2750 H   0  0  0  0  0  0  0  0  0  0  0  0
  -36.2044   19.8461    6.3814 H   0  0  0  0  0  0  0  0  0  0  0  0
  -37.8521   19.5195    7.7806 H   0  0  0  0  0  0  0  0  0  0  0  0
  -37.9612   21.3379    7.9926 H   0  0  0  0  0  0  0  0  0  0  0  0
  1  2  1  0
  2  3  1  0
  3  4  1  0
  4  5  1  0
  5  6  1  0
  6  7  1  0
  7  8  1  0
  8  9  1  0
  9 10  1  0
 10 11  1  0
 11 12  1  0
 12 13  1  0
 13 14  1  0
 14 15  1  0
 15 16  1  0
 16 17  2  0
 16 18  1  0
  1 19  1  0
  1 20  1  0
  1 21  1  0
  2 22  1  0
  2 23  1  0
  3 24  1  0
  3 25  1  0
  4 26  1  0
  4 27  1  0
  5 28  1  0
  5 29  1  0
  6 30  1  0
  6 31  1  0
  7 32  1  0
  7 33  1  0
  8 34  1  0
  8 35  1  0
  9 36  1  0
  9 37  1  0
 10 38  1  0
 10 39  1  0
 11 40  1  0
 11 41  1  0
 12 42  1  0
 12 43  1  0
 13 44  1  0
 13 45  1  0
 14 46  1  0
 14 47  1  0
 15 48  1  0
 15 49  1  0
M  CHG  1  18  -1
M  END
>  <meeko>  (3) 
{"is_sidechain": [false], "free_energy": -6.051, "intermolecular_energy": -10.528, "internal_energy": -2.378}

$$$$
palmitate_Nlobe_run02
     RDKit          3D

 49 48  0  0  0  0  0  0  0  0999 V2000
  -33.6090   24.6710    6.7750 C   0  0  0  0  0  0  0  0  0  0  0  0
  -32.3400   25.2660    7.3640 C   0  0  0  0  0  0  0  0  0  0  0  0
  -32.0070   24.7390    8.7630 C   0  0  0  0  0  0  0  0  0  0  0  0
  -32.3450   23.2560    8.9480 C   0  0  0  0  0  0  0  0  0  0  0  0
  -33.3100   22.9890   10.1100 C   0  0  0  0  0  0  0  0  0  0  0  0
  -34.4660   22.0290    9.8140 C   0  0  0  0  0  0  0  0  0  0  0  0
  -35.3790   22.5030    8.6820 C   0  0  0  0  0  0  0  0  0  0  0  0
  -35.9830   21.3180    7.9240 C   0  0  0  0  0  0  0  0  0  0  0  0
  -36.3010   21.6960    6.4760 C   0  0  0  0  0  0  0  0  0  0  0  0
  -36.0440   20.5660    5.4750 C   0  0  0  0  0  0  0  0  0  0  0  0
  -35.1310   20.9120    4.2930 C   0  0  0  0  0  0  0  0  0  0  0  0
  -33.6670   20.5230    4.5160 C   0  0  0  0  0  0  0  0  0  0  0  0
  -32.9230   21.5920    5.3180 C   0  0  0  0  0  0  0  0  0  0  0  0
  -32.0170   21.0210    6.4160 C   0  0  0  0  0  0  0  0  0  0  0  0
  -32.6320   19.8670    7.2080 C   0  0  0  0  0  0  0  0  0  0  0  0
  -31.9010   18.5550    7.0660 C   0  0  0  0  0  0  0  0  0  0  0  0
  -31.7440   17.9720    6.0010 O   0  0  0  0  0  0  0  0  0  0  0  0
  -31.4600   18.0660    8.2510 O   0  0  0  0  0  0  0  0  0  0  0  0
  -34.2788   24.3569    7.5890 H   0  0  0  0  0  0  0  0  0  0  0  0
  -34.1145   25.4260    6.1549 H   0  0  0  0  0  0  0  0  0  0  0  0
  -33.3519   23.7996    6.1549 H   0  0  0  0  0  0  0  0  0  0  0  0
  -31.5008   25.0278    6.6939 H   0  0  0  0  0  0  0  0  0  0  0  0
  -32.5057   26.3493    7.4586 H   0  0  0  0  0  0  0  0  0  0  0  0
  -30.9302   24.8766    8.9408 H   0  0  0  0  0  0  0  0  0  0  0  0
  -32.6208   25.3050    9.4791 H   0  0  0  0  0  0  0  0  0  0  0  0
  -32.8059   22.8856    8.0205 H   0  0  0  0  0  0  0  0  0  0  0  0
  -31.4043   22.7364    9.1826 H   0  0  0  0  0  0  0  0  0  0  0  0
  -32.7268   22.5675   10.9420 H   0  0  0  0  0  0  0  0  0  0  0  0
  -33.7789   23.9582   10.3354 H   0  0  0  0  0  0  0  0  0  0  0  0
  -34.0444   21.0520    9.5352 H   0  0  0  0  0  0  0  0  0  0  0  0
  -35.0814   21.9738   10.7240 H   0  0  0  0  0  0  0  0  0  0  0  0
  -36.1926   23.1090    9.1073 H   0  0  0  0  0  0  0  0  0  0  0  0
  -34.7794   23.0978    7.9772 H   0  0  0  0  0  0  0  0  0  0  0  0
  -35.2649   20.4847    7.9285 H   0  0  0  0  0  0  0  0  0  0  0  0
  -36.9186   21.0242    8.4224 H   0  0  0  0  0  0  0  0  0  0  0  0
  -37.3623   21.9787    6.4158 H   0  0  0  0  0  0  0  0  0  0  0  0
  -35.6303   22.5247    6.2050 H   0  0  0  0  0  0  0  0  0  0  0  0
  -35.5845   19.7295    6.0220 H   0  0  0  0  0  0  0  0  0  0  0  0
  -37.0241   20.3305    5.0346 H   0  0  0  0  0  0  0  0  0  0  0  0
  -35.4998   20.3828    3.4020 H   0  0  0  0  0  0  0  0  0  0  0  0
  -35.1599   22.0049    4.1717 H   0  0  0  0  0  0  0  0  0  0  0  0
  -33.6291   19.5713    5.0663 H   0  0  0  0  0  0  0  0  0  0  0  0
  -33.1808   20.4249    3.5342 H   0  0  0  0  0  0  0  0  0  0  0  0
  -32.3012   22.1766    4.6240 H   0  0  0  0  0  0  0  0  0  0  0  0
  -33.6856   22.2068    5.8184 H   0  0  0  0  0  0  0  0  0  0  0  0
  -31.0914   20.6593    5.9443 H   0  0  0  0  0  0  0  0  0  0  0  0
  -31.8434   21.8361    7.1340 H   0  0  0  0  0  0  0  0  0  0  0  0
  -32.6374   20.1445    8.2724 H   0  0  0  0  0  0  0  0  0  0  0  0
  -33.6418   19.7097    6.8010 H   0  0  0  0  0  0  0  0  0  0  0  0
  1  2  1  0
  2  3  1  0
  3  4  1  0
  4  5  1  0
  5  6  1  0
  6  7  1  0
  7  8  1  0
  8  9  1  0
  9 10  1  0
 10 11  1  0
 11 12  1  0
 12 13  1  0
 13 14  1  0
 14 15  1  0
 15 16  1  0
 16 17  2  0
 16 18  1  0
  1 19  1  0
  1 20  1  0
  1 21  1  0
  2 22  1  0
  2 23  1  0
  3 24  1  0
  3 25  1  0
  4 26  1  0
  4 27  1  0
  5 28  1  0
  5 29  1  0
  6 30  1  0
  6 31  1  0
  7 32  1  0
  7 33  1  0
  8 34  1  0
  8 35  1  0
  9 36  1  0
  9 37  1  0
 10 38  1  0
 10 39  1  0
 11 40  1  0
 11 41  1  0
 12 42  1  0
 12 43  1  0
 13 44  1  0
 13 45  1  0
 14 46  1  0
 14 47  1  0
 15 48  1  0
 15 49  1  0
M  CHG  1  18  -1
M  END
>  <meeko>  (4) 
{"is_sidechain": [false], "free_energy": -6.04, "intermolecular_energy": -10.862, "internal_energy": -2.024}

$$$$
palmitate_Nlobe_run02
     RDKit          3D

 49 48  0  0  0  0  0  0  0  0999 V2000
  -34.8740   21.2930    9.4460 C   0  0  0  0  0  0  0  0  0  0  0  0
  -34.5160   22.7570    9.2410 C   0  0  0  0  0  0  0  0  0  0  0  0
  -35.4200   23.4740    8.2340 C   0  0  0  0  0  0  0  0  0  0  0  0
  -34.6770   23.9420    6.9790 C   0  0  0  0  0  0  0  0  0  0  0  0
  -33.5150   24.8980    7.2770 C   0  0  0  0  0  0  0  0  0  0  0  0
  -32.1130   24.3720    6.9560 C   0  0  0  0  0  0  0  0  0  0  0  0
  -32.1190   23.0590    6.1710 C   0  0  0  0  0  0  0  0  0  0  0  0
  -31.6320   21.8940    7.0360 C   0  0  0  0  0  0  0  0  0  0  0  0
  -32.3600   20.5980    6.6740 C   0  0  0  0  0  0  0  0  0  0  0  0
  -33.3720   20.7590    5.5350 C   0  0  0  0  0  0  0  0  0  0  0  0
  -34.8310   20.4480    5.8870 C   0  0  0  0  0  0  0  0  0  0  0  0
  -35.8250   20.8590    4.7970 C   0  0  0  0  0  0  0  0  0  0  0  0
  -37.2590   20.8760    5.3280 C   0  0  0  0  0  0  0  0  0  0  0  0
  -37.3750   20.4800    6.8050 C   0  0  0  0  0  0  0  0  0  0  0  0
  -38.2550   21.4070    7.6420 C   0  0  0  0  0  0  0  0  0  0  0  0
  -39.7360   21.2470    7.4020 C   0  0  0  0  0  0  0  0  0  0  0  0
  -40.3460   20.2000    7.5750 O   0  0  0  0  0  0  0  0  0  0  0  0
  -40.3200   22.3790    6.9380 O   0  0  0  0  0  0  0  0  0  0  0  0
  -34.9271   21.0759   10.5230 H   0  0  0  0  0  0  0  0  0  0  0  0
  -35.8493   21.0855    8.9816 H   0  0  0  0  0  0  0  0  0  0  0  0
  -34.1045   20.6588    8.9816 H   0  0  0  0  0  0  0  0  0  0  0  0
  -34.5957   23.2733   10.2090 H   0  0  0  0  0  0  0  0  0  0  0  0
  -33.4942   22.7854    8.8345 H   0  0  0  0  0  0  0  0  0  0  0  0
  -36.2198   22.7831    7.9290 H   0  0  0  0  0  0  0  0  0  0  0  0
  -35.8153   24.3714    8.7323 H   0  0  0  0  0  0  0  0  0  0  0  0
  -34.2765   23.0579    6.4614 H   0  0  0  0  0  0  0  0  0  0  0  0
  -35.4006   24.4946    6.3617 H   0  0  0  0  0  0  0  0  0  0  0  0
  -33.6736   25.8139    6.6888 H   0  0  0  0  0  0  0  0  0  0  0  0
  -33.5310   25.0535    8.3658 H   0  0  0  0  0  0  0  0  0  0  0  0
  -31.5841   25.1311    6.3609 H   0  0  0  0  0  0  0  0  0  0  0  0
  -31.6144   24.1728    7.9161 H   0  0  0  0  0  0  0  0  0  0  0  0
  -33.1438   22.8492    5.8307 H   0  0  0  0  0  0  0  0  0  0  0  0
  -31.4388   23.1634    5.3129 H   0  0  0  0  0  0  0  0  0  0  0  0
  -30.5522   21.7558    6.8779 H   0  0  0  0  0  0  0  0  0  0  0  0
  -31.8411   22.1298    8.0899 H   0  0  0  0  0  0  0  0  0  0  0  0
  -31.6110   19.8518    6.3705 H   0  0  0  0  0  0  0  0  0  0  0  0
  -32.9249   20.2863    7.5650 H   0  0  0  0  0  0  0  0  0  0  0  0
  -33.3242   21.8012    5.1864 H   0  0  0  0  0  0  0  0  0  0  0  0
  -33.0847   20.0179    4.7745 H   0  0  0  0  0  0  0  0  0  0  0  0
  -34.9254   19.3648    6.0534 H   0  0  0  0  0  0  0  0  0  0  0  0
  -35.0778   21.0321    6.7859 H   0  0  0  0  0  0  0  0  0  0  0  0
  -35.5649   21.8651    4.4362 H   0  0  0  0  0  0  0  0  0  0  0  0
  -35.7667   20.1245    3.9802 H   0  0  0  0  0  0  0  0  0  0  0  0
  -37.6614   21.8928    5.2086 H   0  0  0  0  0  0  0  0  0  0  0  0
  -37.8243   20.1300    4.7502 H   0  0  0  0  0  0  0  0  0  0  0  0
  -37.7977   19.4658    6.8567 H   0  0  0  0  0  0  0  0  0  0  0  0
  -36.3613   20.5454    7.2271 H   0  0  0  0  0  0  0  0  0  0  0  0
  -38.0550   21.2042    8.7045 H   0  0  0  0  0  0  0  0  0  0  0  0
  -37.9987   22.4347    7.3453 H   0  0  0  0  0  0  0  0  0  0  0  0
  1  2  1  0
  2  3  1  0
  3  4  1  0
  4  5  1  0
  5  6  1  0
  6  7  1  0
  7  8  1  0
  8  9  1  0
  9 10  1  0
 10 11  1  0
 11 12  1  0
 12 13  1  0
 13 14  1  0
 14 15  1  0
 15 16  1  0
 16 17  2  0
 16 18  1  0
  1 19  1  0
  1 20  1  0
  1 21  1  0
  2 22  1  0
  2 23  1  0
  3 24  1  0
  3 25  1  0
  4 26  1  0
  4 27  1  0
  5 28  1  0
  5 29  1  0
  6 30  1  0
  6 31  1  0
  7 32  1  0
  7 33  1  0
  8 34  1  0
  8 35  1  0
  9 36  1  0
  9 37  1  0
 10 38  1  0
 10 39  1  0
 11 40  1  0
 11 41  1  0
 12 42  1  0
 12 43  1  0
 13 44  1  0
 13 45  1  0
 14 46  1  0
 14 47  1  0
 15 48  1  0
 15 49  1  0
M  CHG  1  18  -1
M  END
>  <meeko>  (5) 
{"is_sidechain": [false], "free_energy": -6.029, "intermolecular_energy": -10.336, "internal_energy": -2.532}

$$$$
palmitate_Nlobe_run02
     RDKit          3D

 49 48  0  0  0  0  0  0  0  0999 V2000
  -31.8680   24.4430    8.8170 C   0  0  0  0  0  0  0  0  0  0  0  0
  -32.6950   25.2290    7.8120 C   0  0  0  0  0  0  0  0  0  0  0  0
  -33.0710   24.4250    6.5650 C   0  0  0  0  0  0  0  0  0  0  0  0
  -32.0500   23.3390    6.2140 C   0  0  0  0  0  0  0  0  0  0  0  0
  -32.6160   21.9160    6.3000 C   0  0  0  0  0  0  0  0  0  0  0  0
  -32.9160   21.2310    4.9630 C   0  0  0  0  0  0  0  0  0  0  0  0
  -34.3780   20.8090    4.8070 C   0  0  0  0  0  0  0  0  0  0  0  0
  -35.3180   21.8080    5.4870 C   0  0  0  0  0  0  0  0  0  0  0  0
  -36.4010   21.0840    6.2900 C   0  0  0  0  0  0  0  0  0  0  0  0
  -36.7790   21.7960    7.5930 C   0  0  0  0  0  0  0  0  0  0  0  0
  -35.7110   22.7240    8.1830 C   0  0  0  0  0  0  0  0  0  0  0  0
  -35.0070   22.1440    9.4120 C   0  0  0  0  0  0  0  0  0  0  0  0
  -33.8370   21.2450    9.0120 C   0  0  0  0  0  0  0  0  0  0  0  0
  -34.0780   19.7560    9.2910 C   0  0  0  0  0  0  0  0  0  0  0  0
  -33.9860   18.8570    8.0580 C   0  0  0  0  0  0  0  0  0  0  0  0
  -32.5800   18.4630    7.6790 C   0  0  0  0  0  0  0  0  0  0  0  0
  -31.6160   18.5690    8.4260 O   0  0  0  0  0  0  0  0  0  0  0  0
  -32.4860   18.0060    6.4060 O   0  0  0  0  0  0  0  0  0  0  0  0
  -32.1655   24.7257    9.8376 H   0  0  0  0  0  0  0  0  0  0  0  0
  -32.0389   23.3663    8.6703 H   0  0  0  0  0  0  0  0  0  0  0  0
  -30.8014   24.6683    8.6703 H   0  0  0  0  0  0  0  0  0  0  0  0
  -33.6212   25.5583    8.3057 H   0  0  0  0  0  0  0  0  0  0  0  0
  -32.0763   26.0743    7.4762 H   0  0  0  0  0  0  0  0  0  0  0  0
  -34.0452   23.9450    6.7397 H   0  0  0  0  0  0  0  0  0  0  0  0
  -33.1013   25.1290    5.7203 H   0  0  0  0  0  0  0  0  0  0  0  0
  -31.6972   23.5118    5.1865 H   0  0  0  0  0  0  0  0  0  0  0  0
  -31.2370   23.4088    6.9517 H   0  0  0  0  0  0  0  0  0  0  0  0
  -31.8857   21.2953    6.8398 H   0  0  0  0  0  0  0  0  0  0  0  0
  -33.5868   22.0130    6.8081 H   0  0  0  0  0  0  0  0  0  0  0  0
  -32.6668   21.9294    4.1505 H   0  0  0  0  0  0  0  0  0  0  0  0
  -32.3094   20.3141    4.9264 H   0  0  0  0  0  0  0  0  0  0  0  0
  -34.6240   20.7565    3.7362 H   0  0  0  0  0  0  0  0  0  0  0  0
  -34.5098   19.8265    5.2838 H   0  0  0  0  0  0  0  0  0  0  0  0
  -34.7338   22.4468    6.1657 H   0  0  0  0  0  0  0  0  0  0  0  0
  -35.8053   22.4151    4.7098 H   0  0  0  0  0  0  0  0  0  0  0  0
  -37.3020   21.0030    5.6642 H   0  0  0  0  0  0  0  0  0  0  0  0
  -35.9935   20.1005    6.5668 H   0  0  0  0  0  0  0  0  0  0  0  0
  -37.6789   22.3982    7.3992 H   0  0  0  0  0  0  0  0  0  0  0  0
  -36.9242   20.9986    8.3367 H   0  0  0  0  0  0  0  0  0  0  0  0
  -34.9544   22.9200    7.4089 H   0  0  0  0  0  0  0  0  0  0  0  0
  -36.2242   23.6411    8.5079 H   0  0  0  0  0  0  0  0  0  0  0  0
  -34.6279   22.9707   10.0307 H   0  0  0  0  0  0  0  0  0  0  0  0
  -35.7334   21.5378    9.9732 H   0  0  0  0  0  0  0  0  0  0  0  0
  -33.6551   21.3711    7.9345 H   0  0  0  0  0  0  0  0  0  0  0  0
  -32.9745   21.5503    9.6227 H   0  0  0  0  0  0  0  0  0  0  0  0
  -33.3272   19.4171   10.0200 H   0  0  0  0  0  0  0  0  0  0  0  0
  -35.1092   19.6705    9.6642 H   0  0  0  0  0  0  0  0  0  0  0  0
  -34.5587   17.9393    8.2575 H   0  0  0  0  0  0  0  0  0  0  0  0
  -34.3880   19.4378    7.2147 H   0  0  0  0  0  0  0  0  0  0  0  0
  1  2  1  0
  2  3  1  0
  3  4  1  0
  4  5  1  0
  5  6  1  0
  6  7  1  0
  7  8  1  0
  8  9  1  0
  9 10  1  0
 10 11  1  0
 11 12  1  0
 12 13  1  0
 13 14  1  0
 14 15  1  0
 15 16  1  0
 16 17  2  0
 16 18  1  0
  1 19  1  0
  1 20  1  0
  1 21  1  0
  2 22  1  0
  2 23  1  0
  3 24  1  0
  3 25  1  0
  4 26  1  0
  4 27  1  0
  5 28  1  0
  5 29  1  0
  6 30  1  0
  6 31  1  0
  7 32  1  0
  7 33  1  0
  8 34  1  0
  8 35  1  0
  9 36  1  0
  9 37  1  0
 10 38  1  0
 10 39  1  0
 11 40  1  0
 11 41  1  0
 12 42  1  0
 12 43  1  0
 13 44  1  0
 13 45  1  0
 14 46  1  0
 14 47  1  0
 15 48  1  0
 15 49  1  0
M  CHG  1  18  -1
M  END
>  <meeko>  (6) 
{"is_sidechain": [false], "free_energy": -6.0, "intermolecular_energy": -10.439, "internal_energy": -2.376}

$$$$
palmitate_Nlobe_run02
     RDKit          3D

 49 48  0  0  0  0  0  0  0  0999 V2000
  -31.7160   24.5820    8.6950 C   0  0  0  0  0  0  0  0  0  0  0  0
  -32.4920   24.8750    7.4210 C   0  0  0  0  0  0  0  0  0  0  0  0
  -32.5390   23.6950    6.4460 C   0  0  0  0  0  0  0  0  0  0  0  0
  -31.6520   22.5210    6.8730 C   0  0  0  0  0  0  0  0  0  0  0  0
  -32.3550   21.1610    6.7860 C   0  0  0  0  0  0  0  0  0  0  0  0
  -31.7200   20.0250    7.5940 C   0  0  0  0  0  0  0  0  0  0  0  0
  -32.6220   18.7980    7.7360 C   0  0  0  0  0  0  0  0  0  0  0  0
  -34.0130   19.1880    8.2420 C   0  0  0  0  0  0  0  0  0  0  0  0
  -34.0280   19.3070    9.7680 C   0  0  0  0  0  0  0  0  0  0  0  0
  -34.7380   20.5640   10.2790 C   0  0  0  0  0  0  0  0  0  0  0  0
  -34.0510   21.8970    9.9620 C   0  0  0  0  0  0  0  0  0  0  0  0
  -34.8820   22.8160    9.0610 C   0  0  0  0  0  0  0  0  0  0  0  0
  -36.0290   22.0540    8.3950 C   0  0  0  0  0  0  0  0  0  0  0  0
  -36.1060   22.2570    6.8770 C   0  0  0  0  0  0  0  0  0  0  0  0
  -36.5930   21.0360    6.0980 C   0  0  0  0  0  0  0  0  0  0  0  0
  -36.0730   20.9520    4.6840 C   0  0  0  0  0  0  0  0  0  0  0  0
  -36.5110   20.1790    3.8410 O   0  0  0  0  0  0  0  0  0  0  0  0
  -35.0420   21.8000    4.4500 O   0  0  0  0  0  0  0  0  0  0  0  0
  -32.3419   24.8183    9.5681 H   0  0  0  0  0  0  0  0  0  0  0  0
  -31.4395   23.5176    8.7193 H   0  0  0  0  0  0  0  0  0  0  0  0
  -30.8050   25.1981    8.7193 H   0  0  0  0  0  0  0  0  0  0  0  0
  -33.5236   25.1404    7.6956 H   0  0  0  0  0  0  0  0  0  0  0  0
  -31.9708   25.6966    6.9078 H   0  0  0  0  0  0  0  0  0  0  0  0
  -33.5780   23.3405    6.3766 H   0  0  0  0  0  0  0  0  0  0  0  0
  -32.1589   24.0559    5.4789 H   0  0  0  0  0  0  0  0  0  0  0  0
  -30.7668   22.4979    6.2204 H   0  0  0  0  0  0  0  0  0  0  0  0
  -31.3876   22.6820    7.9285 H   0  0  0  0  0  0  0  0  0  0  0  0
  -33.3872   21.2920    7.1430 H   0  0  0  0  0  0  0  0  0  0  0  0
  -32.2792   20.8544    5.7323 H   0  0  0  0  0  0  0  0  0  0  0  0
  -30.7909   19.7177    7.0916 H   0  0  0  0  0  0  0  0  0  0  0  0
  -31.5384   20.4117    8.6077 H   0  0  0  0  0  0  0  0  0  0  0  0
  -32.7210   18.3102    6.7551 H   0  0  0  0  0  0  0  0  0  0  0  0
  -32.1656   18.1133    8.4659 H   0  0  0  0  0  0  0  0  0  0  0  0
  -34.2973   20.1557    7.8029 H   0  0  0  0  0  0  0  0  0  0  0  0
  -34.7264   18.4054    7.9444 H   0  0  0  0  0  0  0  0  0  0  0  0
  -34.5415   18.4259   10.1803 H   0  0  0  0  0  0  0  0  0  0  0  0
  -32.9802   19.3729   10.0963 H   0  0  0  0  0  0  0  0  0  0  0  0
  -35.7430   20.5883    9.8325 H   0  0  0  0  0  0  0  0  0  0  0  0
  -34.7359   20.4817   11.3759 H   0  0  0  0  0  0  0  0  0  0  0  0
  -33.8563   22.4217   10.9090 H   0  0  0  0  0  0  0  0  0  0  0  0
  -33.1254   21.6612    9.4164 H   0  0  0  0  0  0  0  0  0  0  0  0
  -35.2996   23.6318    9.6693 H   0  0  0  0  0  0  0  0  0  0  0  0
  -34.2263   23.2141    8.2726 H   0  0  0  0  0  0  0  0  0  0  0  0
  -35.8951   20.9807    8.5953 H   0  0  0  0  0  0  0  0  0  0  0  0
  -36.9646   22.4472    8.8193 H   0  0  0  0  0  0  0  0  0  0  0  0
  -36.7958   23.0900    6.6764 H   0  0  0  0  0  0  0  0  0  0  0  0
  -35.0795   22.4566    6.5357 H   0  0  0  0  0  0  0  0  0  0  0  0
  -36.2713   20.1328    6.6373 H   0  0  0  0  0  0  0  0  0  0  0  0
  -37.6870   21.1249    6.0259 H   0  0  0  0  0  0  0  0  0  0  0  0
  1  2  1  0
  2  3  1  0
  3  4  1  0
  4  5  1  0
  5  6  1  0
  6  7  1  0
  7  8  1  0
  8  9  1  0
  9 10  1  0
 10 11  1  0
 11 12  1  0
 12 13  1  0
 13 14  1  0
 14 15  1  0
 15 16  1  0
 16 17  2  0
 16 18  1  0
  1 19  1  0
  1 20  1  0
  1 21  1  0
  2 22  1  0
  2 23  1  0
  3 24  1  0
  3 25  1  0
  4 26  1  0
  4 27  1  0
  5 28  1  0
  5 29  1  0
  6 30  1  0
  6 31  1  0
  7 32  1  0
  7 33  1  0
  8 34  1  0
  8 35  1  0
  9 36  1  0
  9 37  1  0
 10 38  1  0
 10 39  1  0
 11 40  1  0
 11 41  1  0
 12 42  1  0
 12 43  1  0
 13 44  1  0
 13 45  1  0
 14 46  1  0
 14 47  1  0
 15 48  1  0
 15 49  1  0
M  CHG  1  18  -1
M  END
>  <meeko>  (7) 
{"is_sidechain": [false], "free_energy": -5.957, "intermolecular_energy": -10.361, "internal_energy": -2.376}

$$$$
palmitate_Nlobe_run02
     RDKit          3D

 49 48  0  0  0  0  0  0  0  0999 V2000
  -31.7560   24.6890    8.9370 C   0  0  0  0  0  0  0  0  0  0  0  0
  -31.8830   24.7700    7.4240 C   0  0  0  0  0  0  0  0  0  0  0  0
  -33.3090   25.0580    6.9430 C   0  0  0  0  0  0  0  0  0  0  0  0
  -34.1890   23.8060    6.8750 C   0  0  0  0  0  0  0  0  0  0  0  0
  -35.3350   23.8070    7.8940 C   0  0  0  0  0  0  0  0  0  0  0  0
  -35.1420   22.9130    9.1220 C   0  0  0  0  0  0  0  0  0  0  0  0
  -34.0140   21.8920    8.9630 C   0  0  0  0  0  0  0  0  0  0  0  0
  -34.5270   20.4640    9.1660 C   0  0  0  0  0  0  0  0  0  0  0  0
  -34.4060   19.6480    7.8770 C   0  0  0  0  0  0  0  0  0  0  0  0
  -33.7040   20.3970    6.7400 C   0  0  0  0  0  0  0  0  0  0  0  0
  -34.2230   20.1080    5.3270 C   0  0  0  0  0  0  0  0  0  0  0  0
  -35.2660   21.1180    4.8400 C   0  0  0  0  0  0  0  0  0  0  0  0
  -36.6870   20.6430    5.1460 C   0  0  0  0  0  0  0  0  0  0  0  0
  -37.3000   21.2930    6.3930 C   0  0  0  0  0  0  0  0  0  0  0  0
  -38.1990   20.3680    7.2130 C   0  0  0  0  0  0  0  0  0  0  0  0
  -39.6460   20.7930    7.2670 C   0  0  0  0  0  0  0  0  0  0  0  0
  -40.5640   20.0510    7.5930 O   0  0  0  0  0  0  0  0  0  0  0  0
  -39.8310   22.0790    6.8830 O   0  0  0  0  0  0  0  0  0  0  0  0
  -32.5955   25.2244    9.4046 H   0  0  0  0  0  0  0  0  0  0  0  0
  -31.7733   23.6348    9.2505 H   0  0  0  0  0  0  0  0  0  0  0  0
  -30.8074   25.1492    9.2505 H   0  0  0  0  0  0  0  0  0  0  0  0
  -31.2249   25.5738    7.0623 H   0  0  0  0  0  0  0  0  0  0  0  0
  -31.5999   23.7855    7.0232 H   0  0  0  0  0  0  0  0  0  0  0  0
  -33.7736   25.7743    7.6366 H   0  0  0  0  0  0  0  0  0  0  0  0
  -33.2339   25.4598    5.9218 H   0  0  0  0  0  0  0  0  0  0  0  0
  -34.6209   23.7385    5.8656 H   0  0  0  0  0  0  0  0  0  0  0  0
  -33.5460   22.9456    7.1124 H   0  0  0  0  0  0  0  0  0  0  0  0
  -35.4701   24.8398    8.2475 H   0  0  0  0  0  0  0  0  0  0  0  0
  -36.2055   23.3959    7.3618 H   0  0  0  0  0  0  0  0  0  0  0  0
  -34.9124   23.5536    9.9863 H   0  0  0  0  0  0  0  0  0  0  0  0
  -36.0745   22.3458    9.2587 H   0  0  0  0  0  0  0  0  0  0  0  0
  -33.5898   21.9805    7.9519 H   0  0  0  0  0  0  0  0  0  0  0  0
  -33.2476   22.0983    9.7246 H   0  0  0  0  0  0  0  0  0  0  0  0
  -33.9352   19.9783    9.9558 H   0  0  0  0  0  0  0  0  0  0  0  0
  -35.5881   20.5108    9.4522 H   0  0  0  0  0  0  0  0  0  0  0  0
  -33.8343   18.7342    8.0964 H   0  0  0  0  0  0  0  0  0  0  0  0
  -35.4289   19.4302    7.5362 H   0  0  0  0  0  0  0  0  0  0  0  0
  -33.8169   21.4752    6.9265 H   0  0  0  0  0  0  0  0  0  0  0  0
  -32.6615   20.0462    6.7516 H   0  0  0  0  0  0  0  0  0  0  0  0
  -33.3702   20.1262    4.6325 H   0  0  0  0  0  0  0  0  0  0  0  0
  -34.7152   19.1248    5.3583 H   0  0  0  0  0  0  0  0  0  0  0  0
  -35.0942   22.0809    5.3433 H   0  0  0  0  0  0  0  0  0  0  0  0
  -35.1632   21.2239    3.7499 H   0  0  0  0  0  0  0  0  0  0  0  0
  -37.3256   20.8790    4.2820 H   0  0  0  0  0  0  0  0  0  0  0  0
  -36.6291   19.5623    5.3427 H   0  0  0  0  0  0  0  0  0  0  0  0
  -36.4794   21.6366    7.0399 H   0  0  0  0  0  0  0  0  0  0  0  0
  -37.9388   22.1141    6.0358 H   0  0  0  0  0  0  0  0  0  0  0  0
  -38.1521   19.3618    6.7709 H   0  0  0  0  0  0  0  0  0  0  0  0
  -37.8234   20.3999    8.2464 H   0  0  0  0  0  0  0  0  0  0  0  0
  1  2  1  0
  2  3  1  0
  3  4  1  0
  4  5  1  0
  5  6  1  0
  6  7  1  0
  7  8  1  0
  8  9  1  0
  9 10  1  0
 10 11  1  0
 11 12  1  0
 12 13  1  0
 13 14  1  0
 14 15  1  0
 15 16  1  0
 16 17  2  0
 16 18  1  0
  1 19  1  0
  1 20  1  0
  1 21  1  0
  2 22  1  0
  2 23  1  0
  3 24  1  0
  3 25  1  0
  4 26  1  0
  4 27  1  0
  5 28  1  0
  5 29  1  0
  6 30  1  0
  6 31  1  0
  7 32  1  0
  7 33  1  0
  8 34  1  0
  8 35  1  0
  9 36  1  0
  9 37  1  0
 10 38  1  0
 10 39  1  0
 11 40  1  0
 11 41  1  0
 12 42  1  0
 12 43  1  0
 13 44  1  0
 13 45  1  0
 14 46  1  0
 14 47  1  0
 15 48  1  0
 15 49  1  0
M  CHG  1  18  -1
M  END
>  <meeko>  (8) 
{"is_sidechain": [false], "free_energy": -5.955, "intermolecular_energy": -10.566, "internal_energy": -2.166}

$$$$
palmitate_Nlobe_run02
     RDKit          3D

 49 48  0  0  0  0  0  0  0  0999 V2000
  -39.6430   20.7540    7.8860 C   0  0  0  0  0  0  0  0  0  0  0  0
  -39.1550   20.9860    6.4650 C   0  0  0  0  0  0  0  0  0  0  0  0
  -37.8480   20.2590    6.1380 C   0  0  0  0  0  0  0  0  0  0  0  0
  -36.6590   21.2050    5.9470 C   0  0  0  0  0  0  0  0  0  0  0  0
  -36.1000   21.7580    7.2640 C   0  0  0  0  0  0  0  0  0  0  0  0
  -35.2710   20.7820    8.1040 C   0  0  0  0  0  0  0  0  0  0  0  0
  -34.9610   21.2970    9.5110 C   0  0  0  0  0  0  0  0  0  0  0  0
  -34.6350   22.7920    9.4940 C   0  0  0  0  0  0  0  0  0  0  0  0
  -33.2660   23.0630   10.1210 C   0  0  0  0  0  0  0  0  0  0  0  0
  -32.2040   23.5070    9.1100 C   0  0  0  0  0  0  0  0  0  0  0  0
  -32.4650   24.8450    8.4090 C   0  0  0  0  0  0  0  0  0  0  0  0
  -32.4260   24.7540    6.8810 C   0  0  0  0  0  0  0  0  0  0  0  0
  -33.0400   23.4440    6.3850 C   0  0  0  0  0  0  0  0  0  0  0  0
  -32.0100   22.4460    5.8410 C   0  0  0  0  0  0  0  0  0  0  0  0
  -32.4950   20.9980    5.7900 C   0  0  0  0  0  0  0  0  0  0  0  0
  -32.9880   20.5530    4.4350 C   0  0  0  0  0  0  0  0  0  0  0  0
  -33.8280   21.1580    3.7820 O   0  0  0  0  0  0  0  0  0  0  0  0
  -32.4260   19.3890    4.0260 O   0  0  0  0  0  0  0  0  0  0  0  0
  -38.8852   21.1143    8.5973 H   0  0  0  0  0  0  0  0  0  0  0  0
  -40.5841   21.3011    8.0444 H   0  0  0  0  0  0  0  0  0  0  0  0
  -39.8128   19.6788    8.0444 H   0  0  0  0  0  0  0  0  0  0  0  0
  -39.9314   20.6349    5.7693 H   0  0  0  0  0  0  0  0  0  0  0  0
  -38.9580   22.0635    6.3641 H   0  0  0  0  0  0  0  0  0  0  0  0
  -37.6163   19.5695    6.9632 H   0  0  0  0  0  0  0  0  0  0  0  0
  -37.9993   19.7302    5.1854 H   0  0  0  0  0  0  0  0  0  0  0  0
  -35.8570   20.6566    5.4312 H   0  0  0  0  0  0  0  0  0  0  0  0
  -37.0195   22.0641    5.3622 H   0  0  0  0  0  0  0  0  0  0  0  0
  -35.4616   22.6207    7.0227 H   0  0  0  0  0  0  0  0  0  0  0  0
  -36.9783   22.0057    7.8781 H   0  0  0  0  0  0  0  0  0  0  0  0
  -35.8298   19.8388    8.1940 H   0  0  0  0  0  0  0  0  0  0  0  0
  -34.3081   20.6496    7.5889 H   0  0  0  0  0  0  0  0  0  0  0  0
  -35.8360   21.1279   10.1558 H   0  0  0  0  0  0  0  0  0  0  0  0
  -34.0850   20.7539    9.8954 H   0  0  0  0  0  0  0  0  0  0  0  0
  -34.6302   23.1471    8.4529 H   0  0  0  0  0  0  0  0  0  0  0  0
  -35.3995   23.3236   10.0796 H   0  0  0  0  0  0  0  0  0  0  0  0
  -33.3801   23.8551   10.8757 H   0  0  0  0  0  0  0  0  0  0  0  0
  -32.9185   22.1151   10.5577 H   0  0  0  0  0  0  0  0  0  0  0  0
  -31.2446   23.5868    9.6421 H   0  0  0  0  0  0  0  0  0  0  0  0
  -32.2141   22.7472    8.3146 H   0  0  0  0  0  0  0  0  0  0  0  0
  -33.4588   25.2076    8.7106 H   0  0  0  0  0  0  0  0  0  0  0  0
  -31.6599   25.5306    8.7121 H   0  0  0  0  0  0  0  0  0  0  0  0
  -32.9913   25.5973    6.4575 H   0  0  0  0  0  0  0  0  0  0  0  0
  -31.3749   24.7880    6.5585 H   0  0  0  0  0  0  0  0  0  0  0  0
  -33.5724   22.9710    7.2233 H   0  0  0  0  0  0  0  0  0  0  0  0
  -33.7108   23.6993    5.5515 H   0  0  0  0  0  0  0  0  0  0  0  0
  -31.7396   22.7537    4.8201 H   0  0  0  0  0  0  0  0  0  0  0  0
  -31.1581   22.4658    6.5366 H   0  0  0  0  0  0  0  0  0  0  0  0
  -31.6600   20.3450    6.0838 H   0  0  0  0  0  0  0  0  0  0  0  0
  -33.3536   20.9303    6.4742 H   0  0  0  0  0  0  0  0  0  0  0  0
  1  2  1  0
  2  3  1  0
  3  4  1  0
  4  5  1  0
  5  6  1  0
  6  7  1  0
  7  8  1  0
  8  9  1  0
  9 10  1  0
 10 11  1  0
 11 12  1  0
 12 13  1  0
 13 14  1  0
 14 15  1  0
 15 16  1  0
 16 17  2  0
 16 18  1  0
  1 19  1  0
  1 20  1  0
  1 21  1  0
  2 22  1  0
  2 23  1  0
  3 24  1  0
  3 25  1  0
  4 26  1  0
  4 27  1  0
  5 28  1  0
  5 29  1  0
  6 30  1  0
  6 31  1  0
  7 32  1  0
  7 33  1  0
  8 34  1  0
  8 35  1  0
  9 36  1  0
  9 37  1  0
 10 38  1  0
 10 39  1  0
 11 40  1  0
 11 41  1  0
 12 42  1  0
 12 43  1  0
 13 44  1  0
 13 45  1  0
 14 46  1  0
 14 47  1  0
 15 48  1  0
 15 49  1  0
M  CHG  1  18  -1
M  END
>  <meeko>  (9) 
{"is_sidechain": [false], "free_energy": -5.928, "intermolecular_energy": -10.986, "internal_energy": -1.697}

$$$$
palmitate_Nlobe_run02
     RDKit          3D

 49 48  0  0  0  0  0  0  0  0999 V2000
  -34.1480   22.1790   10.8760 C   0  0  0  0  0  0  0  0  0  0  0  0
  -34.9350   20.9580   10.4270 C   0  0  0  0  0  0  0  0  0  0  0  0
  -34.0520   19.7700   10.0310 C   0  0  0  0  0  0  0  0  0  0  0  0
  -34.4120   19.1770    8.6660 C   0  0  0  0  0  0  0  0  0  0  0  0
  -33.2100   19.0310    7.7260 C   0  0  0  0  0  0  0  0  0  0  0  0
  -32.2620   20.2320    7.6570 C   0  0  0  0  0  0  0  0  0  0  0  0
  -32.1410   20.8340    6.2560 C   0  0  0  0  0  0  0  0  0  0  0  0
  -32.0270   22.3600    6.3170 C   0  0  0  0  0  0  0  0  0  0  0  0
  -32.2850   22.8730    7.7360 C   0  0  0  0  0  0  0  0  0  0  0  0
  -33.0900   24.1750    7.7810 C   0  0  0  0  0  0  0  0  0  0  0  0
  -34.4450   24.1500    7.0650 C   0  0  0  0  0  0  0  0  0  0  0  0
  -35.6260   23.8730    7.9990 C   0  0  0  0  0  0  0  0  0  0  0  0
  -36.5000   22.7350    7.4700 C   0  0  0  0  0  0  0  0  0  0  0  0
  -35.7260   21.6860    6.6620 C   0  0  0  0  0  0  0  0  0  0  0  0
  -36.5670   20.9300    5.6340 C   0  0  0  0  0  0  0  0  0  0  0  0
  -35.9250   20.8050    4.2750 C   0  0  0  0  0  0  0  0  0  0  0  0
  -34.8040   21.2190    4.0080 O   0  0  0  0  0  0  0  0  0  0  0  0
  -36.7350   20.2150    3.3620 O   0  0  0  0  0  0  0  0  0  0  0  0
  -34.1241   22.2160   11.9751 H   0  0  0  0  0  0  0  0  0  0  0  0
  -33.1203   22.1156   10.4889 H   0  0  0  0  0  0  0  0  0  0  0  0
  -34.6302   23.0887   10.4889 H   0  0  0  0  0  0  0  0  0  0  0  0
  -35.5905   20.6440   11.2526 H   0  0  0  0  0  0  0  0  0  0  0  0
  -35.5016   21.2513    9.5310 H   0  0  0  0  0  0  0  0  0  0  0  0
  -33.0056   20.1076   10.0001 H   0  0  0  0  0  0  0  0  0  0  0  0
  -34.2108   18.9814   10.7812 H   0  0  0  0  0  0  0  0  0  0  0  0
  -34.8531   18.1818    8.8242 H   0  0  0  0  0  0  0  0  0  0  0  0
  -35.1151   19.8737    8.1861 H   0  0  0  0  0  0  0  0  0  0  0  0
  -32.6262   18.1601    8.0589 H   0  0  0  0  0  0  0  0  0  0  0  0
  -33.6339   18.9293    6.7161 H   0  0  0  0  0  0  0  0  0  0  0  0
  -32.6354   21.0099    8.3392 H   0  0  0  0  0  0  0  0  0  0  0  0
  -31.2624   19.8720    7.9420 H   0  0  0  0  0  0  0  0  0  0  0  0
  -31.2441   20.4265    5.7666 H   0  0  0  0  0  0  0  0  0  0  0  0
  -33.0454   20.5747    5.6861 H   0  0  0  0  0  0  0  0  0  0  0  0
  -31.0150   22.6579    6.0052 H   0  0  0  0  0  0  0  0  0  0  0  0
  -32.7811   22.7950    5.6445 H   0  0  0  0  0  0  0  0  0  0  0  0
  -32.8408   22.1014    8.2889 H   0  0  0  0  0  0  0  0  0  0  0  0
  -31.3037   23.0851    8.1854 H   0  0  0  0  0  0  0  0  0  0  0  0
  -33.2716   24.4225    8.8373 H   0  0  0  0  0  0  0  0  0  0  0  0
  -32.4832   24.9186    7.2435 H   0  0  0  0  0  0  0  0  0  0  0  0
  -34.6029   25.1270    6.5849 H   0  0  0  0  0  0  0  0  0  0  0  0
  -34.4099   23.3269    6.3361 H   0  0  0  0  0  0  0  0  0  0  0  0
  -35.2404   23.5966    8.9914 H   0  0  0  0  0  0  0  0  0  0  0  0
  -36.2410   24.7830    8.0591 H   0  0  0  0  0  0  0  0  0  0  0  0
  -36.9728   22.2333    8.3272 H   0  0  0  0  0  0  0  0  0  0  0  0
  -37.2362   23.1860    6.7884 H   0  0  0  0  0  0  0  0  0  0  0  0
  -34.9097   22.1962    6.1296 H   0  0  0  0  0  0  0  0  0  0  0  0
  -35.3674   20.9375    7.3839 H   0  0  0  0  0  0  0  0  0  0  0  0
  -36.7544   19.9173    6.0205 H   0  0  0  0  0  0  0  0  0  0  0  0
  -37.4894   21.5126    5.4932 H   0  0  0  0  0  0  0  0  0  0  0  0
  1  2  1  0
  2  3  1  0
  3  4  1  0
  4  5  1  0
  5  6  1  0
  6  7  1  0
  7  8  1  0
  8  9  1  0
  9 10  1  0
 10 11  1  0
 11 12  1  0
 12 13  1  0
 13 14  1  0
 14 15  1  0
 15 16  1  0
 16 17  2  0
 16 18  1  0
  1 19  1  0
  1 20  1  0
  1 21  1  0
  2 22  1  0
  2 23  1  0
  3 24  1  0
  3 25  1  0
  4 26  1  0
  4 27  1  0
  5 28  1  0
  5 29  1  0
  6 30  1  0
  6 31  1  0
  7 32  1  0
  7 33  1  0
  8 34  1  0
  8 35  1  0
  9 36  1  0
  9 37  1  0
 10 38  1  0
 10 39  1  0
 11 40  1  0
 11 41  1  0
 12 42  1  0
 12 43  1  0
 13 44  1  0
 13 45  1  0
 14 46  1  0
 14 47  1  0
 15 48  1  0
 15 49  1  0
M  CHG  1  18  -1
M  END
>  <meeko>  (10) 
{"is_sidechain": [false], "free_energy": -5.924, "intermolecular_energy": -10.148, "internal_energy": -2.529}

$$$$
palmitate_Nlobe_run02
     RDKit          3D

 49 48  0  0  0  0  0  0  0  0999 V2000
  -38.6030   21.5320    7.2090 C   0  0  0  0  0  0  0  0  0  0  0  0
  -37.2490   20.8410    7.2090 C   0  0  0  0  0  0  0  0  0  0  0  0
  -36.1260   21.6910    6.6070 C   0  0  0  0  0  0  0  0  0  0  0  0
  -35.8830   22.9990    7.3660 C   0  0  0  0  0  0  0  0  0  0  0  0
  -34.6300   23.7520    6.9050 C   0  0  0  0  0  0  0  0  0  0  0  0
  -33.5660   24.0060    7.9770 C   0  0  0  0  0  0  0  0  0  0  0  0
  -33.2710   22.7820    8.8460 C   0  0  0  0  0  0  0  0  0  0  0  0
  -33.6270   23.0450   10.3120 C   0  0  0  0  0  0  0  0  0  0  0  0
  -34.1250   21.7690   10.9940 C   0  0  0  0  0  0  0  0  0  0  0  0
  -34.8050   20.7860   10.0370 C   0  0  0  0  0  0  0  0  0  0  0  0
  -34.0660   19.4650    9.7960 C   0  0  0  0  0  0  0  0  0  0  0  0
  -34.2070   18.9360    8.3660 C   0  0  0  0  0  0  0  0  0  0  0  0
  -32.8400   18.6750    7.7310 C   0  0  0  0  0  0  0  0  0  0  0  0
  -32.3130   19.8490    6.8970 C   0  0  0  0  0  0  0  0  0  0  0  0
  -32.6620   19.7780    5.4100 C   0  0  0  0  0  0  0  0  0  0  0  0
  -32.9050   21.1190    4.7630 C   0  0  0  0  0  0  0  0  0  0  0  0
  -32.2630   22.1280    5.0200 O   0  0  0  0  0  0  0  0  0  0  0  0
  -33.9380   21.1000    3.8850 O   0  0  0  0  0  0  0  0  0  0  0  0
  -38.9296   21.6987    8.2461 H   0  0  0  0  0  0  0  0  0  0  0  0
  -38.5213   22.4987    6.6905 H   0  0  0  0  0  0  0  0  0  0  0  0
  -39.3379   20.8987    6.6905 H   0  0  0  0  0  0  0  0  0  0  0  0
  -36.9825   20.5985    8.2483 H   0  0  0  0  0  0  0  0  0  0  0  0
  -37.3455   19.9430    6.5811 H   0  0  0  0  0  0  0  0  0  0  0  0
  -35.1970   21.1020    6.6199 H   0  0  0  0  0  0  0  0  0  0  0  0
  -36.4324   21.9593    5.5852 H   0  0  0  0  0  0  0  0  0  0  0  0
  -36.7553   23.6531    7.2200 H   0  0  0  0  0  0  0  0  0  0  0  0
  -35.7303   22.7352    8.4229 H   0  0  0  0  0  0  0  0  0  0  0  0
  -34.1629   23.1664    6.0995 H   0  0  0  0  0  0  0  0  0  0  0  0
  -34.9802   24.7472    6.5936 H   0  0  0  0  0  0  0  0  0  0  0  0
  -32.6346   24.3112    7.4777 H   0  0  0  0  0  0  0  0  0  0  0  0
  -33.9581   24.7888    8.6430 H   0  0  0  0  0  0  0  0  0  0  0  0
  -33.8638   21.9308    8.4799 H   0  0  0  0  0  0  0  0  0  0  0  0
  -32.1953   22.5611    8.7830 H   0  0  0  0  0  0  0  0  0  0  0  0
  -32.7329   23.4090   10.8393 H   0  0  0  0  0  0  0  0  0  0  0  0
  -34.4291   23.7969   10.3479 H   0  0  0  0  0  0  0  0  0  0  0  0
  -33.2645   21.2640   11.4572 H   0  0  0  0  0  0  0  0  0  0  0  0
  -34.8804   22.0731   11.7335 H   0  0  0  0  0  0  0  0  0  0  0  0
  -35.7968   20.5469   10.4484 H   0  0  0  0  0  0  0  0  0  0  0  0
  -34.8336   21.2929    9.0612 H   0  0  0  0  0  0  0  0  0  0  0  0
  -32.9974   19.6211   10.0053 H   0  0  0  0  0  0  0  0  0  0  0  0
  -34.5179   18.7161   10.4631 H   0  0  0  0  0  0  0  0  0  0  0  0
  -34.7776   17.9958    8.3867 H   0  0  0  0  0  0  0  0  0  0  0  0
  -34.7288   19.6956    7.7654 H   0  0  0  0  0  0  0  0  0  0  0  0
  -32.1178   18.4680    8.5345 H   0  0  0  0  0  0  0  0  0  0  0  0
  -32.9614   17.8231    7.0458 H   0  0  0  0  0  0  0  0  0  0  0  0
  -32.7371   20.7782    7.3054 H   0  0  0  0  0  0  0  0  0  0  0  0
  -31.2156   19.8115    6.9628 H   0  0  0  0  0  0  0  0  0  0  0  0
  -31.8294   19.2879    4.8841 H   0  0  0  0  0  0  0  0  0  0  0  0
  -33.6054   19.2173    5.3350 H   0  0  0  0  0  0  0  0  0  0  0  0
  1  2  1  0
  2  3  1  0
  3  4  1  0
  4  5  1  0
  5  6  1  0
  6  7  1  0
  7  8  1  0
  8  9  1  0
  9 10  1  0
 10 11  1  0
 11 12  1  0
 12 13  1  0
 13 14  1  0
 14 15  1  0
 15 16  1  0
 16 17  2  0
 16 18  1  0
  1 19  1  0
  1 20  1  0
  1 21  1  0
  2 22  1  0
  2 23  1  0
  3 24  1  0
  3 25  1  0
  4 26  1  0
  4 27  1  0
  5 28  1  0
  5 29  1  0
  6 30  1  0
  6 31  1  0
  7 32  1  0
  7 33  1  0
  8 34  1  0
  8 35  1  0
  9 36  1  0
  9 37  1  0
 10 38  1  0
 10 39  1  0
 11 40  1  0
 11 41  1  0
 12 42  1  0
 12 43  1  0
 13 44  1  0
 13 45  1  0
 14 46  1  0
 14 47  1  0
 15 48  1  0
 15 49  1  0
M  CHG  1  18  -1
M  END
>  <meeko>  (11) 
{"is_sidechain": [false], "free_energy": -5.919, "intermolecular_energy": -10.565, "internal_energy": -2.101}

$$$$
palmitate_Nlobe_run02
     RDKit          3D

 49 48  0  0  0  0  0  0  0  0999 V2000
  -36.8230   21.1580    6.2070 C   0  0  0  0  0  0  0  0  0  0  0  0
  -36.3450   20.9140    4.7850 C   0  0  0  0  0  0  0  0  0  0  0  0
  -34.8230   20.7910    4.6620 C   0  0  0  0  0  0  0  0  0  0  0  0
  -34.0640   21.5560    5.7500 C   0  0  0  0  0  0  0  0  0  0  0  0
  -32.5550   21.6510    5.4920 C   0  0  0  0  0  0  0  0  0  0  0  0
  -31.8630   22.9140    6.0120 C   0  0  0  0  0  0  0  0  0  0  0  0
  -32.8240   23.9150    6.6570 C   0  0  0  0  0  0  0  0  0  0  0  0
  -32.1160   24.7520    7.7260 C   0  0  0  0  0  0  0  0  0  0  0  0
  -32.2890   24.1300    9.1140 C   0  0  0  0  0  0  0  0  0  0  0  0
  -33.3650   23.0420    9.1700 C   0  0  0  0  0  0  0  0  0  0  0  0
  -33.8700   22.6700   10.5690 C   0  0  0  0  0  0  0  0  0  0  0  0
  -34.6250   21.3390   10.6140 C   0  0  0  0  0  0  0  0  0  0  0  0
  -34.6650   20.6740    9.2370 C   0  0  0  0  0  0  0  0  0  0  0  0
  -33.9350   19.3270    9.1800 C   0  0  0  0  0  0  0  0  0  0  0  0
  -33.7660   18.7570    7.7720 C   0  0  0  0  0  0  0  0  0  0  0  0
  -32.3370   18.4710    7.3830 C   0  0  0  0  0  0  0  0  0  0  0  0
  -32.0110   17.9060    6.3480 O   0  0  0  0  0  0  0  0  0  0  0  0
  -31.4450   18.8780    8.3190 O   0  0  0  0  0  0  0  0  0  0  0  0
  -36.0741   20.7757    6.9162 H   0  0  0  0  0  0  0  0  0  0  0  0
  -36.9621   22.2374    6.3670 H   0  0  0  0  0  0  0  0  0  0  0  0
  -37.7788   20.6375    6.3670 H   0  0  0  0  0  0  0  0  0  0  0  0
  -36.7998   19.9811    4.4205 H   0  0  0  0  0  0  0  0  0  0  0  0
  -36.6472   21.7877    4.1888 H   0  0  0  0  0  0  0  0  0  0  0  0
  -34.5520   19.7270    4.7295 H   0  0  0  0  0  0  0  0  0  0  0  0
  -34.5375   21.2306    3.6949 H   0  0  0  0  0  0  0  0  0  0  0  0
  -34.4722   22.5758    5.8077 H   0  0  0  0  0  0  0  0  0  0  0  0
  -34.1971   20.9994    6.6894 H   0  0  0  0  0  0  0  0  0  0  0  0
  -32.0765   20.7839    5.9707 H   0  0  0  0  0  0  0  0  0  0  0  0
  -32.4426   21.6804    4.3982 H   0  0  0  0  0  0  0  0  0  0  0  0
  -31.1145   22.6174    6.7615 H   0  0  0  0  0  0  0  0  0  0  0  0
  -31.4088   23.4146    5.1442 H   0  0  0  0  0  0  0  0  0  0  0  0
  -33.2188   24.5855    5.8795 H   0  0  0  0  0  0  0  0  0  0  0  0
  -33.6401   23.3549    7.1369 H   0  0  0  0  0  0  0  0  0  0  0  0
  -31.0435   24.8071    7.4877 H   0  0  0  0  0  0  0  0  0  0  0  0
  -32.5612   25.7579    7.7350 H   0  0  0  0  0  0  0  0  0  0  0  0
  -31.3296   23.6858    9.4178 H   0  0  0  0  0  0  0  0  0  0  0  0
  -32.6106   24.9359    9.7901 H   0  0  0  0  0  0  0  0  0  0  0  0
  -34.2271   23.3902    8.5822 H   0  0  0  0  0  0  0  0  0  0  0  0
  -32.8893   22.1327    8.7741 H   0  0  0  0  0  0  0  0  0  0  0  0
  -33.0045   22.6019   11.2445 H   0  0  0  0  0  0  0  0  0  0  0  0
  -34.5788   23.4535   10.8751 H   0  0  0  0  0  0  0  0  0  0  0  0
  -34.1209   20.6652   11.3225 H   0  0  0  0  0  0  0  0  0  0  0  0
  -35.6588   21.5377   10.9330 H   0  0  0  0  0  0  0  0  0  0  0  0
  -35.7172   20.5104    8.9611 H   0  0  0  0  0  0  0  0  0  0  0  0
  -34.1475   21.3491    8.5396 H   0  0  0  0  0  0  0  0  0  0  0  0
  -32.9353   19.4591    9.6195 H   0  0  0  0  0  0  0  0  0  0  0  0
  -34.5575   18.6100    9.7352 H   0  0  0  0  0  0  0  0  0  0  0  0
  -34.3339   17.8169    7.7109 H   0  0  0  0  0  0  0  0  0  0  0  0
  -34.1330   19.5257    7.0760 H   0  0  0  0  0  0  0  0  0  0  0  0
  1  2  1  0
  2  3  1  0
  3  4  1  0
  4  5  1  0
  5  6  1  0
  6  7  1  0
  7  8  1  0
  8  9  1  0
  9 10  1  0
 10 11  1  0
 11 12  1  0
 12 13  1  0
 13 14  1  0
 14 15  1  0
 15 16  1  0
 16 17  2  0
 16 18  1  0
  1 19  1  0
  1 20  1  0
  1 21  1  0
  2 22  1  0
  2 23  1  0
  3 24  1  0
  3 25  1  0
  4 26  1  0
  4 27  1  0
  5 28  1  0
  5 29  1  0
  6 30  1  0
  6 31  1  0
  7 32  1  0
  7 33  1  0
  8 34  1  0
  8 35  1  0
  9 36  1  0
  9 37  1  0
 10 38  1  0
 10 39  1  0
 11 40  1  0
 11 41  1  0
 12 42  1  0
 12 43  1  0
 13 44  1  0
 13 45  1  0
 14 46  1  0
 14 47  1  0
 15 48  1  0
 15 49  1  0
M  CHG  1  18  -1
M  END
>  <meeko>  (12) 
{"is_sidechain": [false], "free_energy": -5.894, "intermolecular_energy": -10.905, "internal_energy": -1.717}

$$$$
palmitate_Nlobe_run02
     RDKit          3D

 49 48  0  0  0  0  0  0  0  0999 V2000
  -34.1950   19.2840   10.9650 C   0  0  0  0  0  0  0  0  0  0  0  0
  -34.6880   20.5100   10.2130 C   0  0  0  0  0  0  0  0  0  0  0  0
  -34.3010   21.8340   10.8790 C   0  0  0  0  0  0  0  0  0  0  0  0
  -34.6870   23.0640   10.0510 C   0  0  0  0  0  0  0  0  0  0  0  0
  -35.2160   22.7190    8.6530 C   0  0  0  0  0  0  0  0  0  0  0  0
  -35.4070   23.9010    7.6980 C   0  0  0  0  0  0  0  0  0  0  0  0
  -34.2050   24.1490    6.7850 C   0  0  0  0  0  0  0  0  0  0  0  0
  -33.1570   25.0260    7.4750 C   0  0  0  0  0  0  0  0  0  0  0  0
  -31.8900   24.2270    7.7860 C   0  0  0  0  0  0  0  0  0  0  0  0
  -31.8550   22.8470    7.1220 C   0  0  0  0  0  0  0  0  0  0  0  0
  -31.8490   21.6460    8.0740 C   0  0  0  0  0  0  0  0  0  0  0  0
  -31.1990   20.3940    7.4770 C   0  0  0  0  0  0  0  0  0  0  0  0
  -32.0330   19.1440    7.7610 C   0  0  0  0  0  0  0  0  0  0  0  0
  -33.3460   19.0840    6.9700 C   0  0  0  0  0  0  0  0  0  0  0  0
  -33.2070   19.4190    5.4850 C   0  0  0  0  0  0  0  0  0  0  0  0
  -34.0850   20.5540    5.0180 C   0  0  0  0  0  0  0  0  0  0  0  0
  -35.1190   20.8930    5.5800 O   0  0  0  0  0  0  0  0  0  0  0  0
  -33.6280   21.1420    3.8860 O   0  0  0  0  0  0  0  0  0  0  0  0
  -34.2675   19.4643   12.0477 H   0  0  0  0  0  0  0  0  0  0  0  0
  -34.8137   18.4153   10.6957 H   0  0  0  0  0  0  0  0  0  0  0  0
  -33.1471   19.0855   10.6957 H   0  0  0  0  0  0  0  0  0  0  0  0
  -34.2599   20.4921    9.1999 H   0  0  0  0  0  0  0  0  0  0  0  0
  -35.7869   20.4626   10.2035 H   0  0  0  0  0  0  0  0  0  0  0  0
  -34.8076   21.8960   11.8534 H   0  0  0  0  0  0  0  0  0  0  0  0
  -33.2057   21.8400   10.9804 H   0  0  0  0  0  0  0  0  0  0  0  0
  -35.4688   23.6169   10.5925 H   0  0  0  0  0  0  0  0  0  0  0  0
  -33.7734   23.6609    9.9131 H   0  0  0  0  0  0  0  0  0  0  0  0
  -34.5052   22.0209    8.1868 H   0  0  0  0  0  0  0  0  0  0  0  0
  -36.2205   22.2993    8.8107 H   0  0  0  0  0  0  0  0  0  0  0  0
  -36.2868   23.7013    7.0686 H   0  0  0  0  0  0  0  0  0  0  0  0
  -35.5329   24.8007    8.3183 H   0  0  0  0  0  0  0  0  0  0  0  0
  -33.7483   23.1832    6.5229 H   0  0  0  0  0  0  0  0  0  0  0  0
  -34.5554   24.6703    5.8820 H   0  0  0  0  0  0  0  0  0  0  0  0
  -32.8989   25.8658    6.8131 H   0  0  0  0  0  0  0  0  0  0  0  0
  -33.5785   25.3957    8.4214 H   0  0  0  0  0  0  0  0  0  0  0  0
  -31.0210   24.8033    7.4357 H   0  0  0  0  0  0  0  0  0  0  0  0
  -31.8725   24.0616    8.8734 H   0  0  0  0  0  0  0  0  0  0  0  0
  -32.7416   22.7610    6.4765 H   0  0  0  0  0  0  0  0  0  0  0  0
  -30.8990   22.8018    6.5798 H   0  0  0  0  0  0  0  0  0  0  0  0
  -31.2959   21.9253    8.9829 H   0  0  0  0  0  0  0  0  0  0  0  0
  -32.8993   21.3954    8.2841 H   0  0  0  0  0  0  0  0  0  0  0  0
  -31.1064   20.5230    6.3885 H   0  0  0  0  0  0  0  0  0  0  0  0
  -30.2096   20.2630    7.9396 H   0  0  0  0  0  0  0  0  0  0  0  0
  -31.4318   18.2597    7.5030 H   0  0  0  0  0  0  0  0  0  0  0  0
  -32.3019   19.1732    8.8272 H   0  0  0  0  0  0  0  0  0  0  0  0
  -33.7527   18.0656    7.0559 H   0  0  0  0  0  0  0  0  0  0  0  0
  -34.0074   19.8490    7.4028 H   0  0  0  0  0  0  0  0  0  0  0  0
  -32.1593   19.6917    5.2903 H   0  0  0  0  0  0  0  0  0  0  0  0
  -33.5272   18.5250    4.9298 H   0  0  0  0  0  0  0  0  0  0  0  0
  1  2  1  0
  2  3  1  0
  3  4  1  0
  4  5  1  0
  5  6  1  0
  6  7  1  0
  7  8  1  0
  8  9  1  0
  9 10  1  0
 10 11  1  0
 11 12  1  0
 12 13  1  0
 13 14  1  0
 14 15  1  0
 15 16  1  0
 16 17  2  0
 16 18  1  0
  1 19  1  0
  1 20  1  0
  1 21  1  0
  2 22  1  0
  2 23  1  0
  3 24  1  0
  3 25  1  0
  4 26  1  0
  4 27  1  0
  5 28  1  0
  5 29  1  0
  6 30  1  0
  6 31  1  0
  7 32  1  0
  7 33  1  0
  8 34  1  0
  8 35  1  0
  9 36  1  0
  9 37  1  0
 10 38  1  0
 10 39  1  0
 11 40  1  0
 11 41  1  0
 12 42  1  0
 12 43  1  0
 13 44  1  0
 13 45  1  0
 14 46  1  0
 14 47  1  0
 15 48  1  0
 15 49  1  0
M  CHG  1  18  -1
M  END
>  <meeko>  (13) 
{"is_sidechain": [false], "free_energy": -5.862, "intermolecular_energy": -10.348, "internal_energy": -2.214}

$$$$
palmitate_Nlobe_run02
     RDKit          3D

 49 48  0  0  0  0  0  0  0  0999 V2000
  -34.1650   20.7470    9.4070 C   0  0  0  0  0  0  0  0  0  0  0  0
  -34.5210   21.8840   10.3520 C   0  0  0  0  0  0  0  0  0  0  0  0
  -33.4760   23.0040   10.3850 C   0  0  0  0  0  0  0  0  0  0  0  0
  -32.5540   23.0080    9.1630 C   0  0  0  0  0  0  0  0  0  0  0  0
  -31.8690   24.3580    8.9180 C   0  0  0  0  0  0  0  0  0  0  0  0
  -32.5600   25.2900    7.9170 C   0  0  0  0  0  0  0  0  0  0  0  0
  -33.2690   24.5490    6.7830 C   0  0  0  0  0  0  0  0  0  0  0  0
  -34.7880   24.5710    6.9710 C   0  0  0  0  0  0  0  0  0  0  0  0
  -35.3630   23.1530    6.9670 C   0  0  0  0  0  0  0  0  0  0  0  0
  -36.6990   23.0290    7.7070 C   0  0  0  0  0  0  0  0  0  0  0  0
  -37.7010   22.0290    7.1170 C   0  0  0  0  0  0  0  0  0  0  0  0
  -37.0740   20.6840    6.7410 C   0  0  0  0  0  0  0  0  0  0  0  0
  -37.1720   20.4250    5.2370 C   0  0  0  0  0  0  0  0  0  0  0  0
  -35.8850   20.7520    4.4690 C   0  0  0  0  0  0  0  0  0  0  0  0
  -34.6030   20.2600    5.1420 C   0  0  0  0  0  0  0  0  0  0  0  0
  -33.3380   20.8730    4.5940 C   0  0  0  0  0  0  0  0  0  0  0  0
  -32.5150   21.4670    5.2790 O   0  0  0  0  0  0  0  0  0  0  0  0
  -33.2190   20.7260    3.2520 O   0  0  0  0  0  0  0  0  0  0  0  0
  -33.8866   19.8578    9.9917 H   0  0  0  0  0  0  0  0  0  0  0  0
  -35.0326   20.5120    8.7729 H   0  0  0  0  0  0  0  0  0  0  0  0
  -33.3183   21.0487    8.7729 H   0  0  0  0  0  0  0  0  0  0  0  0
  -35.4817   22.3140   10.0324 H   0  0  0  0  0  0  0  0  0  0  0  0
  -34.5697   21.4582   11.3651 H   0  0  0  0  0  0  0  0  0  0  0  0
  -34.0006   23.9698   10.4297 H   0  0  0  0  0  0  0  0  0  0  0  0
  -32.8442   22.8342   11.2693 H   0  0  0  0  0  0  0  0  0  0  0  0
  -31.7760   22.2446    9.3113 H   0  0  0  0  0  0  0  0  0  0  0  0
  -33.1812   22.7991    8.2838 H   0  0  0  0  0  0  0  0  0  0  0  0
  -31.8087   24.8846    9.8819 H   0  0  0  0  0  0  0  0  0  0  0  0
  -30.8915   24.1183    8.4741 H   0  0  0  0  0  0  0  0  0  0  0  0
  -33.3045   25.8921    8.4585 H   0  0  0  0  0  0  0  0  0  0  0  0
  -31.7760   25.9102    7.4579 H   0  0  0  0  0  0  0  0  0  0  0  0
  -33.0189   25.0324    5.8271 H   0  0  0  0  0  0  0  0  0  0  0  0
  -32.9329   23.5016    6.7880 H   0  0  0  0  0  0  0  0  0  0  0  0
  -35.0244   25.0520    7.9316 H   0  0  0  0  0  0  0  0  0  0  0  0
  -35.2356   25.1324    6.1376 H   0  0  0  0  0  0  0  0  0  0  0  0
  -35.5141   22.8423    5.9227 H   0  0  0  0  0  0  0  0  0  0  0  0
  -34.6419   22.5118    7.4950 H   0  0  0  0  0  0  0  0  0  0  0  0
  -36.4843   22.7208    8.7409 H   0  0  0  0  0  0  0  0  0  0  0  0
  -37.1784   24.0155    7.6233 H   0  0  0  0  0  0  0  0  0  0  0  0
  -38.4914   21.8487    7.8605 H   0  0  0  0  0  0  0  0  0  0  0  0
  -38.0927   22.4731    6.1900 H   0  0  0  0  0  0  0  0  0  0  0  0
  -36.0141   20.6882    7.0353 H   0  0  0  0  0  0  0  0  0  0  0  0
  -37.6212   19.8874    7.2664 H   0  0  0  0  0  0  0  0  0  0  0  0
  -37.4078   19.3617    5.0825 H   0  0  0  0  0  0  0  0  0  0  0  0
  -37.9565   21.0903    4.8470 H   0  0  0  0  0  0  0  0  0  0  0  0
  -35.9510   20.2873    3.4742 H   0  0  0  0  0  0  0  0  0  0  0  0
  -35.8155   21.8490    4.4273 H   0  0  0  0  0  0  0  0  0  0  0  0
  -34.6641   20.4975    6.2143 H   0  0  0  0  0  0  0  0  0  0  0  0
  -34.5395   19.1795    4.9457 H   0  0  0  0  0  0  0  0  0  0  0  0
  1  2  1  0
  2  3  1  0
  3  4  1  0
  4  5  1  0
  5  6  1  0
  6  7  1  0
  7  8  1  0
  8  9  1  0
  9 10  1  0
 10 11  1  0
 11 12  1  0
 12 13  1  0
 13 14  1  0
 14 15  1  0
 15 16  1  0
 16 17  2  0
 16 18  1  0
  1 19  1  0
  1 20  1  0
  1 21  1  0
  2 22  1  0
  2 23  1  0
  3 24  1  0
  3 25  1  0
  4 26  1  0
  4 27  1  0
  5 28  1  0
  5 29  1  0
  6 30  1  0
  6 31  1  0
  7 32  1  0
  7 33  1  0
  8 34  1  0
  8 35  1  0
  9 36  1  0
  9 37  1  0
 10 38  1  0
 10 39  1  0
 11 40  1  0
 11 41  1  0
 12 42  1  0
 12 43  1  0
 13 44  1  0
 13 45  1  0
 14 46  1  0
 14 47  1  0
 15 48  1  0
 15 49  1  0
M  CHG  1  18  -1
M  END
>  <meeko>  (14) 
{"is_sidechain": [false], "free_energy": -5.853, "intermolecular_energy": -10.784, "internal_energy": -1.763}

$$$$
palmitate_Nlobe_run02
     RDKit          3D

 49 48  0  0  0  0  0  0  0  0999 V2000
  -37.8010   20.5000    5.7690 C   0  0  0  0  0  0  0  0  0  0  0  0
  -37.2830   20.8740    7.1490 C   0  0  0  0  0  0  0  0  0  0  0  0
  -36.8690   22.3440    7.2710 C   0  0  0  0  0  0  0  0  0  0  0  0
  -35.5600   22.6660    6.5430 C   0  0  0  0  0  0  0  0  0  0  0  0
  -34.9710   24.0310    6.9200 C   0  0  0  0  0  0  0  0  0  0  0  0
  -33.4500   24.1610    6.8010 C   0  0  0  0  0  0  0  0  0  0  0  0
  -32.8500   25.2000    7.7500 C   0  0  0  0  0  0  0  0  0  0  0  0
  -32.0500   24.5300    8.8710 C   0  0  0  0  0  0  0  0  0  0  0  0
  -32.5030   23.0830    9.0790 C   0  0  0  0  0  0  0  0  0  0  0  0
  -33.5550   22.9220   10.1810 C   0  0  0  0  0  0  0  0  0  0  0  0
  -34.5960   21.8190    9.9560 C   0  0  0  0  0  0  0  0  0  0  0  0
  -34.0490   20.4060   10.1760 C   0  0  0  0  0  0  0  0  0  0  0  0
  -34.3700   19.4940    8.9910 C   0  0  0  0  0  0  0  0  0  0  0  0
  -33.7140   19.9360    7.6770 C   0  0  0  0  0  0  0  0  0  0  0  0
  -32.2070   19.6930    7.6080 C   0  0  0  0  0  0  0  0  0  0  0  0
  -31.8140   18.3930    6.9520 C   0  0  0  0  0  0  0  0  0  0  0  0
  -30.8860   17.6900    7.3320 O   0  0  0  0  0  0  0  0  0  0  0  0
  -32.5770   18.0960    5.8720 O   0  0  0  0  0  0  0  0  0  0  0  0
  -38.6889   19.8589    5.8720 H   0  0  0  0  0  0  0  0  0  0  0  0
  -38.0701   21.4135    5.2184 H   0  0  0  0  0  0  0  0  0  0  0  0
  -37.0186   19.9571    5.2184 H   0  0  0  0  0  0  0  0  0  0  0  0
  -38.0764   20.6740    7.8842 H   0  0  0  0  0  0  0  0  0  0  0  0
  -36.3824   20.2691    7.3304 H   0  0  0  0  0  0  0  0  0  0  0  0
  -37.6682   22.9685    6.8454 H   0  0  0  0  0  0  0  0  0  0  0  0
  -36.7074   22.5500    8.3394 H   0  0  0  0  0  0  0  0  0  0  0  0
  -34.8230   21.8881    6.7911 H   0  0  0  0  0  0  0  0  0  0  0  0
  -35.7869   22.6971    5.4671 H   0  0  0  0  0  0  0  0  0  0  0  0
  -35.4259   24.7870    6.2631 H   0  0  0  0  0  0  0  0  0  0  0  0
  -35.1980   24.1676    7.9876 H   0  0  0  0  0  0  0  0  0  0  0  0
  -32.9985   23.1832    7.0248 H   0  0  0  0  0  0  0  0  0  0  0  0
  -33.2332   24.4959    5.7759 H   0  0  0  0  0  0  0  0  0  0  0  0
  -32.1827   25.8633    7.1802 H   0  0  0  0  0  0  0  0  0  0  0  0
  -33.6721   25.7731    8.2035 H   0  0  0  0  0  0  0  0  0  0  0  0
  -30.9826   24.5381    8.6055 H   0  0  0  0  0  0  0  0  0  0  0  0
  -32.2194   25.0877    9.8039 H   0  0  0  0  0  0  0  0  0  0  0  0
  -32.9290   22.7128    8.1348 H   0  0  0  0  0  0  0  0  0  0  0  0
  -31.6179   22.5097    9.3918 H   0  0  0  0  0  0  0  0  0  0  0  0
  -33.0277   22.7014   11.1208 H   0  0  0  0  0  0  0  0  0  0  0  0
  -34.1193   23.8661   10.1945 H   0  0  0  0  0  0  0  0  0  0  0  0
  -35.4309   21.9812   10.6536 H   0  0  0  0  0  0  0  0  0  0  0  0
  -34.9114   21.8827    8.9041 H   0  0  0  0  0  0  0  0  0  0  0  0
  -32.9575   20.4600   10.3010 H   0  0  0  0  0  0  0  0  0  0  0  0
  -34.5239   19.9864   11.0751 H   0  0  0  0  0  0  0  0  0  0  0  0
  -34.0201   18.4788    9.2294 H   0  0  0  0  0  0  0  0  0  0  0  0
  -35.4583   19.5378    8.8374 H   0  0  0  0  0  0  0  0  0  0  0  0
  -34.1892   19.3836    6.8529 H   0  0  0  0  0  0  0  0  0  0  0  0
  -33.8590   21.0240    7.6054 H   0  0  0  0  0  0  0  0  0  0  0  0
  -31.7516   20.5168    7.0389 H   0  0  0  0  0  0  0  0  0  0  0  0
  -31.8500   19.6403    8.6471 H   0  0  0  0  0  0  0  0  0  0  0  0
  1  2  1  0
  2  3  1  0
  3  4  1  0
  4  5  1  0
  5  6  1  0
  6  7  1  0
  7  8  1  0
  8  9  1  0
  9 10  1  0
 10 11  1  0
 11 12  1  0
 12 13  1  0
 13 14  1  0
 14 15  1  0
 15 16  1  0
 16 17  2  0
 16 18  1  0
  1 19  1  0
  1 20  1  0
  1 21  1  0
  2 22  1  0
  2 23  1  0
  3 24  1  0
  3 25  1  0
  4 26  1  0
  4 27  1  0
  5 28  1  0
  5 29  1  0
  6 30  1  0
  6 31  1  0
  7 32  1  0
  7 33  1  0
  8 34  1  0
  8 35  1  0
  9 36  1  0
  9 37  1  0
 10 38  1  0
 10 39  1  0
 11 40  1  0
 11 41  1  0
 12 42  1  0
 12 43  1  0
 13 44  1  0
 13 45  1  0
 14 46  1  0
 14 47  1  0
 15 48  1  0
 15 49  1  0
M  CHG  1  18  -1
M  END
>  <meeko>  (15) 
{"is_sidechain": [false], "free_energy": -5.786, "intermolecular_energy": -10.515, "internal_energy": -1.91}

$$$$
palmitate_Nlobe_run02
     RDKit          3D

 49 48  0  0  0  0  0  0  0  0999 V2000
  -31.2150   18.1770    6.8520 C   0  0  0  0  0  0  0  0  0  0  0  0
  -32.0420   18.9080    7.8970 C   0  0  0  0  0  0  0  0  0  0  0  0
  -33.0270   19.9190    7.3030 C   0  0  0  0  0  0  0  0  0  0  0  0
  -32.7830   20.2000    5.8170 C   0  0  0  0  0  0  0  0  0  0  0  0
  -32.4360   21.6640    5.5200 C   0  0  0  0  0  0  0  0  0  0  0  0
  -31.8050   22.4520    6.6730 C   0  0  0  0  0  0  0  0  0  0  0  0
  -32.2080   23.9270    6.6960 C   0  0  0  0  0  0  0  0  0  0  0  0
  -32.4190   24.4220    8.1290 C   0  0  0  0  0  0  0  0  0  0  0  0
  -32.4970   23.2490    9.1090 C   0  0  0  0  0  0  0  0  0  0  0  0
  -33.8700   23.0910    9.7700 C   0  0  0  0  0  0  0  0  0  0  0  0
  -34.8730   22.2000    9.0270 C   0  0  0  0  0  0  0  0  0  0  0  0
  -35.8070   22.9760    8.0940 C   0  0  0  0  0  0  0  0  0  0  0  0
  -35.8640   22.3360    6.7060 C   0  0  0  0  0  0  0  0  0  0  0  0
  -36.8670   21.1800    6.6000 C   0  0  0  0  0  0  0  0  0  0  0  0
  -38.1020   21.3290    7.4880 C   0  0  0  0  0  0  0  0  0  0  0  0
  -39.3700   20.7710    6.8900 C   0  0  0  0  0  0  0  0  0  0  0  0
  -40.3090   20.3500    7.5520 O   0  0  0  0  0  0  0  0  0  0  0  0
  -39.3500   20.7540    5.5340 O   0  0  0  0  0  0  0  0  0  0  0  0
  -30.4813   17.5284    7.3530 H   0  0  0  0  0  0  0  0  0  0  0  0
  -31.8774   17.5638    6.2234 H   0  0  0  0  0  0  0  0  0  0  0  0
  -30.6878   18.9097    6.2234 H   0  0  0  0  0  0  0  0  0  0  0  0
  -32.6123   18.1636    8.4720 H   0  0  0  0  0  0  0  0  0  0  0  0
  -31.3392   19.4741    8.5259 H   0  0  0  0  0  0  0  0  0  0  0  0
  -34.0468   19.5239    7.4209 H   0  0  0  0  0  0  0  0  0  0  0  0
  -32.8856   20.8675    7.8419 H   0  0  0  0  0  0  0  0  0  0  0  0
  -31.9496   19.5685    5.4755 H   0  0  0  0  0  0  0  0  0  0  0  0
  -33.7206   19.9759    5.2872 H   0  0  0  0  0  0  0  0  0  0  0  0
  -31.7299   21.6781    4.6766 H   0  0  0  0  0  0  0  0  0  0  0  0
  -33.3956   22.1599    5.3120 H   0  0  0  0  0  0  0  0  0  0  0  0
  -32.1171   21.9909    7.6217 H   0  0  0  0  0  0  0  0  0  0  0  0
  -30.7148   22.4165    6.5308 H   0  0  0  0  0  0  0  0  0  0  0  0
  -31.4132   24.5233    6.2240 H   0  0  0  0  0  0  0  0  0  0  0  0
  -33.1547   24.0376    6.1468 H   0  0  0  0  0  0  0  0  0  0  0  0
  -31.5781   25.0721    8.4124 H   0  0  0  0  0  0  0  0  0  0  0  0
  -33.3674   24.9777    8.1716 H   0  0  0  0  0  0  0  0  0  0  0  0
  -32.2660   22.3231    8.5619 H   0  0  0  0  0  0  0  0  0  0  0  0
  -31.7740   23.4521    9.9127 H   0  0  0  0  0  0  0  0  0  0  0  0
  -33.7148   22.6617   10.7708 H   0  0  0  0  0  0  0  0  0  0  0  0
  -34.3143   24.0973    9.7771 H   0  0  0  0  0  0  0  0  0  0  0  0
  -34.3112   21.4687    8.4274 H   0  0  0  0  0  0  0  0  0  0  0  0
  -35.5040   21.7190    9.7889 H   0  0  0  0  0  0  0  0  0  0  0  0
  -36.8185   22.9851    8.5261 H   0  0  0  0  0  0  0  0  0  0  0  0
  -35.4196   24.0001    7.9883 H   0  0  0  0  0  0  0  0  0  0  0  0
  -36.1484   23.1102    5.9781 H   0  0  0  0  0  0  0  0  0  0  0  0
  -34.8674   21.9161    6.5048 H   0  0  0  0  0  0  0  0  0  0  0  0
  -37.2019   21.1105    5.5545 H   0  0  0  0  0  0  0  0  0  0  0  0
  -36.3413   20.2771    6.9442 H   0  0  0  0  0  0  0  0  0  0  0  0
  -37.9093   20.8056    8.4361 H   0  0  0  0  0  0  0  0  0  0  0  0
  -38.2656   22.4087    7.6201 H   0  0  0  0  0  0  0  0  0  0  0  0
  1  2  1  0
  2  3  1  0
  3  4  1  0
  4  5  1  0
  5  6  1  0
  6  7  1  0
  7  8  1  0
  8  9  1  0
  9 10  1  0
 10 11  1  0
 11 12  1  0
 12 13  1  0
 13 14  1  0
 14 15  1  0
 15 16  1  0
 16 17  2  0
 16 18  1  0
  1 19  1  0
  1 20  1  0
  1 21  1  0
  2 22  1  0
  2 23  1  0
  3 24  1  0
  3 25  1  0
  4 26  1  0
  4 27  1  0
  5 28  1  0
  5 29  1  0
  6 30  1  0
  6 31  1  0
  7 32  1  0
  7 33  1  0
  8 34  1  0
  8 35  1  0
  9 36  1  0
  9 37  1  0
 10 38  1  0
 10 39  1  0
 11 40  1  0
 11 41  1  0
 12 42  1  0
 12 43  1  0
 13 44  1  0
 13 45  1  0
 14 46  1  0
 14 47  1  0
 15 48  1  0
 15 49  1  0
M  CHG  1  18  -1
M  END
>  <meeko>  (16) 
{"is_sidechain": [false], "free_energy": -5.752, "intermolecular_energy": -10.284, "internal_energy": -2.08}

$$$$
palmitate_Nlobe_run02
     RDKit          3D

 49 48  0  0  0  0  0  0  0  0999 V2000
  -32.7110   25.3000    7.3970 C   0  0  0  0  0  0  0  0  0  0  0  0
  -33.4690   24.1230    6.8040 C   0  0  0  0  0  0  0  0  0  0  0  0
  -34.7010   23.7150    7.6170 C   0  0  0  0  0  0  0  0  0  0  0  0
  -34.3620   22.8650    8.8460 C   0  0  0  0  0  0  0  0  0  0  0  0
  -35.1450   21.5490    8.9150 C   0  0  0  0  0  0  0  0  0  0  0  0
  -34.3880   20.2940    8.4700 C   0  0  0  0  0  0  0  0  0  0  0  0
  -32.9430   20.5680    8.0510 C   0  0  0  0  0  0  0  0  0  0  0  0
  -32.6880   20.1200    6.6100 C   0  0  0  0  0  0  0  0  0  0  0  0
  -34.0050   19.8560    5.8760 C   0  0  0  0  0  0  0  0  0  0  0  0
  -34.3070   20.8710    4.7700 C   0  0  0  0  0  0  0  0  0  0  0  0
  -35.7290   21.4420    4.7540 C   0  0  0  0  0  0  0  0  0  0  0  0
  -36.7730   20.4700    4.1970 C   0  0  0  0  0  0  0  0  0  0  0  0
  -37.9980   20.3860    5.1080 C   0  0  0  0  0  0  0  0  0  0  0  0
  -37.6840   20.6270    6.5900 C   0  0  0  0  0  0  0  0  0  0  0  0
  -38.4210   21.8140    7.2090 C   0  0  0  0  0  0  0  0  0  0  0  0
  -39.8780   21.5580    7.5030 C   0  0  0  0  0  0  0  0  0  0  0  0
  -40.7480   22.4170    7.4440 O   0  0  0  0  0  0  0  0  0  0  0  0
  -40.1230   20.2780    7.8760 O   0  0  0  0  0  0  0  0  0  0  0  0
  -32.7472   25.2438    8.4950 H   0  0  0  0  0  0  0  0  0  0  0  0
  -31.6636   25.2676    7.0625 H   0  0  0  0  0  0  0  0  0  0  0  0
  -33.1738   26.2402    7.0625 H   0  0  0  0  0  0  0  0  0  0  0  0
  -33.7962   24.3955    5.7898 H   0  0  0  0  0  0  0  0  0  0  0  0
  -32.7825   23.2635    6.8053 H   0  0  0  0  0  0  0  0  0  0  0  0
  -35.2145   24.6274    7.9544 H   0  0  0  0  0  0  0  0  0  0  0  0
  -35.3354   23.1008    6.9610 H   0  0  0  0  0  0  0  0  0  0  0  0
  -33.2877   22.6299    8.8210 H   0  0  0  0  0  0  0  0  0  0  0  0
  -34.6401   23.4535    9.7327 H   0  0  0  0  0  0  0  0  0  0  0  0
  -35.4610   21.3995    9.9580 H   0  0  0  0  0  0  0  0  0  0  0  0
  -35.9773   21.6612    8.2046 H   0  0  0  0  0  0  0  0  0  0  0  0
  -34.3783   19.5789    9.3058 H   0  0  0  0  0  0  0  0  0  0  0  0
  -34.9107   19.8977    7.5870 H   0  0  0  0  0  0  0  0  0  0  0  0
  -32.7450   21.6471    8.1312 H   0  0  0  0  0  0  0  0  0  0  0  0
  -32.2750   19.9996    8.7149 H   0  0  0  0  0  0  0  0  0  0  0  0
  -32.1333   20.9089    6.0809 H   0  0  0  0  0  0  0  0  0  0  0  0
  -32.1056   19.1870    6.6311 H   0  0  0  0  0  0  0  0  0  0  0  0
  -33.9561   18.8543    5.4242 H   0  0  0  0  0  0  0  0  0  0  0  0
  -34.8107   19.9418    6.6200 H   0  0  0  0  0  0  0  0  0  0  0  0
  -33.6076   21.7122    4.8847 H   0  0  0  0  0  0  0  0  0  0  0  0
  -34.1970   20.3209    3.8238 H   0  0  0  0  0  0  0  0  0  0  0  0
  -36.0110   21.7022    5.7849 H   0  0  0  0  0  0  0  0  0  0  0  0
  -35.7174   22.3188    4.0898 H   0  0  0  0  0  0  0  0  0  0  0  0
  -37.0897   20.8163    3.2021 H   0  0  0  0  0  0  0  0  0  0  0  0
  -36.3178   19.4705    4.1354 H   0  0  0  0  0  0  0  0  0  0  0  0
  -38.7266   21.1421    4.7803 H   0  0  0  0  0  0  0  0  0  0  0  0
  -38.3894   19.3613    5.0256 H   0  0  0  0  0  0  0  0  0  0  0  0
  -37.9586   19.7216    7.1510 H   0  0  0  0  0  0  0  0  0  0  0  0
  -36.6106   20.8602    6.6485 H   0  0  0  0  0  0  0  0  0  0  0  0
  -37.9203   22.0756    8.1529 H   0  0  0  0  0  0  0  0  0  0  0  0
  -38.3883   22.6255    6.4671 H   0  0  0  0  0  0  0  0  0  0  0  0
  1  2  1  0
  2  3  1  0
  3  4  1  0
  4  5  1  0
  5  6  1  0
  6  7  1  0
  7  8  1  0
  8  9  1  0
  9 10  1  0
 10 11  1  0
 11 12  1  0
 12 13  1  0
 13 14  1  0
 14 15  1  0
 15 16  1  0
 16 17  2  0
 16 18  1  0
  1 19  1  0
  1 20  1  0
  1 21  1  0
  2 22  1  0
  2 23  1  0
  3 24  1  0
  3 25  1  0
  4 26  1  0
  4 27  1  0
  5 28  1  0
  5 29  1  0
  6 30  1  0
  6 31  1  0
  7 32  1  0
  7 33  1  0
  8 34  1  0
  8 35  1  0
  9 36  1  0
  9 37  1  0
 10 38  1  0
 10 39  1  0
 11 40  1  0
 11 41  1  0
 12 42  1  0
 12 43  1  0
 13 44  1  0
 13 45  1  0
 14 46  1  0
 14 47  1  0
 15 48  1  0
 15 49  1  0
M  CHG  1  18  -1
M  END
>  <meeko>  (17) 
{"is_sidechain": [false], "free_energy": -5.749, "intermolecular_energy": -10.171, "internal_energy": -2.186}

$$$$
palmitate_Nlobe_run02
     RDKit          3D

 49 48  0  0  0  0  0  0  0  0999 V2000
  -32.7660   18.7750    7.9350 C   0  0  0  0  0  0  0  0  0  0  0  0
  -34.0960   19.2570    8.4940 C   0  0  0  0  0  0  0  0  0  0  0  0
  -34.0580   19.5560    9.9950 C   0  0  0  0  0  0  0  0  0  0  0  0
  -34.8860   20.7830   10.3890 C   0  0  0  0  0  0  0  0  0  0  0  0
  -34.6740   21.9870    9.4630 C   0  0  0  0  0  0  0  0  0  0  0  0
  -33.4660   22.8730    9.7790 C   0  0  0  0  0  0  0  0  0  0  0  0
  -32.7510   23.3970    8.5330 C   0  0  0  0  0  0  0  0  0  0  0  0
  -31.7630   22.3640    7.9840 C   0  0  0  0  0  0  0  0  0  0  0  0
  -31.9510   22.1700    6.4780 C   0  0  0  0  0  0  0  0  0  0  0  0
  -33.4180   22.0490    6.0520 C   0  0  0  0  0  0  0  0  0  0  0  0
  -33.7220   20.9800    4.9950 C   0  0  0  0  0  0  0  0  0  0  0  0
  -35.2180   20.7780    4.7420 C   0  0  0  0  0  0  0  0  0  0  0  0
  -36.0640   21.5490    5.7560 C   0  0  0  0  0  0  0  0  0  0  0  0
  -36.8580   20.6480    6.7100 C   0  0  0  0  0  0  0  0  0  0  0  0
  -38.1490   21.2690    7.2410 C   0  0  0  0  0  0  0  0  0  0  0  0
  -39.4100   20.6030    6.7470 C   0  0  0  0  0  0  0  0  0  0  0  0
  -39.5710   20.2140    5.5980 O   0  0  0  0  0  0  0  0  0  0  0  0
  -40.3650   20.5080    7.7040 O   0  0  0  0  0  0  0  0  0  0  0  0
  -32.0871   18.5290    8.7648 H   0  0  0  0  0  0  0  0  0  0  0  0
  -32.9306   17.8793    7.3180 H   0  0  0  0  0  0  0  0  0  0  0  0
  -32.3185   19.5681    7.3180 H   0  0  0  0  0  0  0  0  0  0  0  0
  -34.3834   20.1767    7.9634 H   0  0  0  0  0  0  0  0  0  0  0  0
  -34.8219   18.4440    8.3454 H   0  0  0  0  0  0  0  0  0  0  0  0
  -34.4503   18.6818   10.5353 H   0  0  0  0  0  0  0  0  0  0  0  0
  -33.0117   19.7705   10.2583 H   0  0  0  0  0  0  0  0  0  0  0  0
  -35.9506   20.5074   10.3636 H   0  0  0  0  0  0  0  0  0  0  0  0
  -34.5574   21.0860   11.3941 H   0  0  0  0  0  0  0  0  0  0  0  0
  -34.5529   21.6060    8.4382 H   0  0  0  0  0  0  0  0  0  0  0  0
  -35.5566   22.6282    9.6039 H   0  0  0  0  0  0  0  0  0  0  0  0
  -33.8109   23.7340   10.3704 H   0  0  0  0  0  0  0  0  0  0  0  0
  -32.7440   22.2514   10.3289 H   0  0  0  0  0  0  0  0  0  0  0  0
  -33.4991   23.6241    7.7592 H   0  0  0  0  0  0  0  0  0  0  0  0
  -32.1901   24.3021    8.8089 H   0  0  0  0  0  0  0  0  0  0  0  0
  -30.7368   22.7103    8.1765 H   0  0  0  0  0  0  0  0  0  0  0  0
  -31.9466   21.4027    8.4863 H   0  0  0  0  0  0  0  0  0  0  0  0
  -31.5084   23.0327    5.9586 H   0  0  0  0  0  0  0  0  0  0  0  0
  -31.4592   21.2228    6.2115 H   0  0  0  0  0  0  0  0  0  0  0  0
  -34.0112   21.8151    6.9484 H   0  0  0  0  0  0  0  0  0  0  0  0
  -33.6728   23.0114    5.5842 H   0  0  0  0  0  0  0  0  0  0  0  0
  -33.2467   21.2804    4.0496 H   0  0  0  0  0  0  0  0  0  0  0  0
  -33.3273   20.0268    5.3767 H   0  0  0  0  0  0  0  0  0  0  0  0
  -35.4610   21.1329    3.7296 H   0  0  0  0  0  0  0  0  0  0  0  0
  -35.4451   19.7066    4.8448 H   0  0  0  0  0  0  0  0  0  0  0  0
  -35.3947   22.1841    6.3549 H   0  0  0  0  0  0  0  0  0  0  0  0
  -36.7976   22.1348    5.1826 H   0  0  0  0  0  0  0  0  0  0  0  0
  -37.1170   19.7233    6.1734 H   0  0  0  0  0  0  0  0  0  0  0  0
  -36.2131   20.4723    7.5836 H   0  0  0  0  0  0  0  0  0  0  0  0
  -38.1345   21.2067    8.3391 H   0  0  0  0  0  0  0  0  0  0  0  0
  -38.1749   22.3045    6.8707 H   0  0  0  0  0  0  0  0  0  0  0  0
  1  2  1  0
  2  3  1  0
  3  4  1  0
  4  5  1  0
  5  6  1  0
  6  7  1  0
  7  8  1  0
  8  9  1  0
  9 10  1  0
 10 11  1  0
 11 12  1  0
 12 13  1  0
 13 14  1  0
 14 15  1  0
 15 16  1  0
 16 17  2  0
 16 18  1  0
  1 19  1  0
  1 20  1  0
  1 21  1  0
  2 22  1  0
  2 23  1  0
  3 24  1  0
  3 25  1  0
  4 26  1  0
  4 27  1  0
  5 28  1  0
  5 29  1  0
  6 30  1  0
  6 31  1  0
  7 32  1  0
  7 33  1  0
  8 34  1  0
  8 35  1  0
  9 36  1  0
  9 37  1  0
 10 38  1  0
 10 39  1  0
 11 40  1  0
 11 41  1  0
 12 42  1  0
 12 43  1  0
 13 44  1  0
 13 45  1  0
 14 46  1  0
 14 47  1  0
 15 48  1  0
 15 49  1  0
M  CHG  1  18  -1
M  END
>  <meeko>  (18) 
{"is_sidechain": [false], "free_energy": -5.736, "intermolecular_energy": -9.991, "internal_energy": -2.343}

$$$$
palmitate_Nlobe_run02
     RDKit          3D

 49 48  0  0  0  0  0  0  0  0999 V2000
  -31.7820   24.5980    8.7830 C   0  0  0  0  0  0  0  0  0  0  0  0
  -32.6020   24.7380    7.5110 C   0  0  0  0  0  0  0  0  0  0  0  0
  -32.1210   23.8390    6.3680 C   0  0  0  0  0  0  0  0  0  0  0  0
  -32.0180   22.3620    6.7630 C   0  0  0  0  0  0  0  0  0  0  0  0
  -32.5110   21.4020    5.6740 C   0  0  0  0  0  0  0  0  0  0  0  0
  -32.5500   19.9190    6.0540 C   0  0  0  0  0  0  0  0  0  0  0  0
  -32.4160   19.6700    7.5580 C   0  0  0  0  0  0  0  0  0  0  0  0
  -33.7540   19.2490    8.1710 C   0  0  0  0  0  0  0  0  0  0  0  0
  -33.9530   19.8910    9.5460 C   0  0  0  0  0  0  0  0  0  0  0  0
  -35.1250   20.8760    9.6000 C   0  0  0  0  0  0  0  0  0  0  0  0
  -34.8100   22.3150    9.1740 C   0  0  0  0  0  0  0  0  0  0  0  0
  -35.8170   22.8920    8.1760 C   0  0  0  0  0  0  0  0  0  0  0  0
  -35.6550   22.2620    6.7920 C   0  0  0  0  0  0  0  0  0  0  0  0
  -36.9020   21.5150    6.3030 C   0  0  0  0  0  0  0  0  0  0  0  0
  -37.9430   21.2410    7.3880 C   0  0  0  0  0  0  0  0  0  0  0  0
  -39.3730   21.3380    6.9180 C   0  0  0  0  0  0  0  0  0  0  0  0
  -40.0400   22.3630    6.9660 O   0  0  0  0  0  0  0  0  0  0  0  0
  -39.8600   20.1560    6.4660 O   0  0  0  0  0  0  0  0  0  0  0  0
  -32.4398   24.7103    9.6575 H   0  0  0  0  0  0  0  0  0  0  0  0
  -31.3075   23.6059    8.8061 H   0  0  0  0  0  0  0  0  0  0  0  0
  -31.0052   25.3765    8.8061 H   0  0  0  0  0  0  0  0  0  0  0  0
  -33.6463   24.4796    7.7405 H   0  0  0  0  0  0  0  0  0  0  0  0
  -32.4930   25.7782    7.1703 H   0  0  0  0  0  0  0  0  0  0  0  0
  -32.8295   23.9284    5.5313 H   0  0  0  0  0  0  0  0  0  0  0  0
  -31.1104   24.1744    6.0919 H   0  0  0  0  0  0  0  0  0  0  0  0
  -30.9642   22.1320    6.9789 H   0  0  0  0  0  0  0  0  0  0  0  0
  -32.6651   22.2158    7.6404 H   0  0  0  0  0  0  0  0  0  0  0  0
  -33.5310   21.7049    5.3949 H   0  0  0  0  0  0  0  0  0  0  0  0
  -31.7790   21.4796    4.8566 H   0  0  0  0  0  0  0  0  0  0  0  0
  -33.5082   19.4980    5.7155 H   0  0  0  0  0  0  0  0  0  0  0  0
  -31.6880   19.4381    5.5686 H   0  0  0  0  0  0  0  0  0  0  0  0
  -31.6778   18.8718    7.7251 H   0  0  0  0  0  0  0  0  0  0  0  0
  -32.0918   20.6050    8.0382 H   0  0  0  0  0  0  0  0  0  0  0  0
  -34.5703   19.5650    7.5048 H   0  0  0  0  0  0  0  0  0  0  0  0
  -33.7562   18.1556    8.2909 H   0  0  0  0  0  0  0  0  0  0  0  0
  -34.1364   19.0920   10.2794 H   0  0  0  0  0  0  0  0  0  0  0  0
  -33.0406   20.4633    9.7695 H   0  0  0  0  0  0  0  0  0  0  0  0
  -35.9169   20.4943    8.9387 H   0  0  0  0  0  0  0  0  0  0  0  0
  -35.4154   20.9357   10.6593 H   0  0  0  0  0  0  0  0  0  0  0  0
  -34.8065   22.9507   10.0717 H   0  0  0  0  0  0  0  0  0  0  0  0
  -33.8317   22.2962    8.6714 H   0  0  0  0  0  0  0  0  0  0  0  0
  -36.8357   22.6956    8.5415 H   0  0  0  0  0  0  0  0  0  0  0  0
  -35.6356   23.9733    8.0874 H   0  0  0  0  0  0  0  0  0  0  0  0
  -35.4245   23.0610    6.0719 H   0  0  0  0  0  0  0  0  0  0  0  0
  -34.8467   21.5200    6.8700 H   0  0  0  0  0  0  0  0  0  0  0  0
  -37.3772   22.1184    5.5155 H   0  0  0  0  0  0  0  0  0  0  0  0
  -36.5582   20.5336    5.9444 H   0  0  0  0  0  0  0  0  0  0  0  0
  -37.7765   20.2252    7.7759 H   0  0  0  0  0  0  0  0  0  0  0  0
  -37.8107   22.0195    8.1538 H   0  0  0  0  0  0  0  0  0  0  0  0
  1  2  1  0
  2  3  1  0
  3  4  1  0
  4  5  1  0
  5  6  1  0
  6  7  1  0
  7  8  1  0
  8  9  1  0
  9 10  1  0
 10 11  1  0
 11 12  1  0
 12 13  1  0
 13 14  1  0
 14 15  1  0
 15 16  1  0
 16 17  2  0
 16 18  1  0
  1 19  1  0
  1 20  1  0
  1 21  1  0
  2 22  1  0
  2 23  1  0
  3 24  1  0
  3 25  1  0
  4 26  1  0
  4 27  1  0
  5 28  1  0
  5 29  1  0
  6 30  1  0
  6 31  1  0
  7 32  1  0
  7 33  1  0
  8 34  1  0
  8 35  1  0
  9 36  1  0
  9 37  1  0
 10 38  1  0
 10 39  1  0
 11 40  1  0
 11 41  1  0
 12 42  1  0
 12 43  1  0
 13 44  1  0
 13 45  1  0
 14 46  1  0
 14 47  1  0
 15 48  1  0
 15 49  1  0
M  CHG  1  18  -1
M  END
>  <meeko>  (19) 
{"is_sidechain": [false], "free_energy": -5.681, "intermolecular_energy": -10.077, "internal_energy": -2.158}

$$$$
palmitate_Nlobe_run02
     RDKit          3D

 49 48  0  0  0  0  0  0  0  0999 V2000
  -32.3710   19.1780    7.9450 C   0  0  0  0  0  0  0  0  0  0  0  0
  -32.4550   19.3000    6.4320 C   0  0  0  0  0  0  0  0  0  0  0  0
  -32.5100   20.7480    5.9360 C   0  0  0  0  0  0  0  0  0  0  0  0
  -31.8010   21.7350    6.8690 C   0  0  0  0  0  0  0  0  0  0  0  0
  -32.2370   23.1910    6.6650 C   0  0  0  0  0  0  0  0  0  0  0  0
  -32.4960   23.9990    7.9400 C   0  0  0  0  0  0  0  0  0  0  0  0
  -32.7750   23.1300    9.1670 C   0  0  0  0  0  0  0  0  0  0  0  0
  -34.2760   23.0530    9.4620 C   0  0  0  0  0  0  0  0  0  0  0  0
  -34.7510   21.6000    9.5160 C   0  0  0  0  0  0  0  0  0  0  0  0
  -35.5310   21.1620    8.2720 C   0  0  0  0  0  0  0  0  0  0  0  0
  -35.9980   22.2890    7.3440 C   0  0  0  0  0  0  0  0  0  0  0  0
  -35.7700   21.9940    5.8590 C   0  0  0  0  0  0  0  0  0  0  0  0
  -36.2630   20.5950    5.4870 C   0  0  0  0  0  0  0  0  0  0  0  0
  -37.7860   20.4970    5.3330 C   0  0  0  0  0  0  0  0  0  0  0  0
  -38.4940   19.7750    6.4790 C   0  0  0  0  0  0  0  0  0  0  0  0
  -39.6620   20.5290    7.0640 C   0  0  0  0  0  0  0  0  0  0  0  0
  -40.6210   19.9920    7.6030 O   0  0  0  0  0  0  0  0  0  0  0  0
  -39.5580   21.8710    6.9000 O   0  0  0  0  0  0  0  0  0  0  0  0
  -32.9361   19.9987    8.4110 H   0  0  0  0  0  0  0  0  0  0  0  0
  -32.7978   18.2142    8.2594 H   0  0  0  0  0  0  0  0  0  0  0  0
  -31.3183   19.2329    8.2594 H   0  0  0  0  0  0  0  0  0  0  0  0
  -31.5695   18.8158    5.9943 H   0  0  0  0  0  0  0  0  0  0  0  0
  -33.3928   18.8165    6.1208 H   0  0  0  0  0  0  0  0  0  0  0  0
  -32.0311   20.7968    4.9469 H   0  0  0  0  0  0  0  0  0  0  0  0
  -33.5700   21.0395    5.8978 H   0  0  0  0  0  0  0  0  0  0  0  0
  -32.0185   21.4489    7.9086 H   0  0  0  0  0  0  0  0  0  0  0  0
  -30.7267   21.6837    6.6381 H   0  0  0  0  0  0  0  0  0  0  0  0
  -31.4461   23.7028    6.0970 H   0  0  0  0  0  0  0  0  0  0  0  0
  -33.2045   23.1407    6.1440 H   0  0  0  0  0  0  0  0  0  0  0  0
  -31.6103   24.6179    8.1459 H   0  0  0  0  0  0  0  0  0  0  0  0
  -33.3964   24.6052    7.7615 H   0  0  0  0  0  0  0  0  0  0  0  0
  -32.3932   22.1151    8.9821 H   0  0  0  0  0  0  0  0  0  0  0  0
  -32.2723   23.5816   10.0350 H   0  0  0  0  0  0  0  0  0  0  0  0
  -34.4771   23.5333   10.4309 H   0  0  0  0  0  0  0  0  0  0  0  0
  -34.8182   23.5689    8.6558 H   0  0  0  0  0  0  0  0  0  0  0  0
  -33.8698   20.9499    9.6205 H   0  0  0  0  0  0  0  0  0  0  0  0
  -35.4367   21.5168   10.3721 H   0  0  0  0  0  0  0  0  0  0  0  0
  -34.8846   20.4904    7.6879 H   0  0  0  0  0  0  0  0  0  0  0  0
  -36.4487   20.6862    8.6480 H   0  0  0  0  0  0  0  0  0  0  0  0
  -37.0742   22.4491    7.5056 H   0  0  0  0  0  0  0  0  0  0  0  0
  -35.4010   23.1791    7.5915 H   0  0  0  0  0  0  0  0  0  0  0  0
  -36.3150   22.7372    5.2585 H   0  0  0  0  0  0  0  0  0  0  0  0
  -34.6899   22.0460    5.6571 H   0  0  0  0  0  0  0  0  0  0  0  0
  -35.7984   20.3057    4.5328 H   0  0  0  0  0  0  0  0  0  0  0  0
  -35.9803   19.9252    6.3125 H   0  0  0  0  0  0  0  0  0  0  0  0
  -38.1910   21.5176    5.2676 H   0  0  0  0  0  0  0  0  0  0  0  0
  -37.9710   19.9018    4.4266 H   0  0  0  0  0  0  0  0  0  0  0  0
  -38.8620   18.8094    6.1020 H   0  0  0  0  0  0  0  0  0  0  0  0
  -37.7545   19.6668    7.2861 H   0  0  0  0  0  0  0  0  0  0  0  0
  1  2  1  0
  2  3  1  0
  3  4  1  0
  4  5  1  0
  5  6  1  0
  6  7  1  0
  7  8  1  0
  8  9  1  0
  9 10  1  0
 10 11  1  0
 11 12  1  0
 12 13  1  0
 13 14  1  0
 14 15  1  0
 15 16  1  0
 16 17  2  0
 16 18  1  0
  1 19  1  0
  1 20  1  0
  1 21  1  0
  2 22  1  0
  2 23  1  0
  3 24  1  0
  3 25  1  0
  4 26  1  0
  4 27  1  0
  5 28  1  0
  5 29  1  0
  6 30  1  0
  6 31  1  0
  7 32  1  0
  7 33  1  0
  8 34  1  0
  8 35  1  0
  9 36  1  0
  9 37  1  0
 10 38  1  0
 10 39  1  0
 11 40  1  0
 11 41  1  0
 12 42  1  0
 12 43  1  0
 13 44  1  0
 13 45  1  0
 14 46  1  0
 14 47  1  0
 15 48  1  0
 15 49  1  0
M  CHG  1  18  -1
M  END
>  <meeko>  (20) 
{"is_sidechain": [false], "free_energy": -5.663, "intermolecular_energy": -9.737, "internal_energy": -2.466}

$$$$
