stearate_Nlobe_run03
     RDKit          3D

 55 54  0  0  0  0  0  0  0  0999 V2000
  -32.5870   25.0520    7.3420 C   0  0  0  0  0  0  0  0  0  0  0  0
  -32.1600   24.5510    8.7140 C   0  0  0  0  0  0  0  0  0  0  0  0
  -32.5760   23.1050    8.9930 C   0  0  0  0  0  0  0  0  0  0  0  0
  -33.5070   22.9650   10.2000 C   0  0  0  0  0  0  0  0  0  0  0  0
  -34.7210   22.0950    9.8640 C   0  0  0  0  0  0  0  0  0  0  0  0
  -34.7490   20.7670   10.6290 C   0  0  0  0  0  0  0  0  0  0  0  0
  -34.0030   19.6040    9.9660 C   0  0  0  0  0  0  0  0  0  0  0  0
  -34.4420   19.2570    8.5410 C   0  0  0  0  0  0  0  0  0  0  0  0
  -33.3080   18.7260    7.6670 C   0  0  0  0  0  0  0  0  0  0  0  0
  -32.1470   19.7090    7.4700 C   0  0  0  0  0  0  0  0  0  0  0  0
  -32.3050   20.6720    6.2860 C   0  0  0  0  0  0  0  0  0  0  0  0
  -33.2580   20.1370    5.2120 C   0  0  0  0  0  0  0  0  0  0  0  0
  -34.4760   21.0360    4.9740 C   0  0  0  0  0  0  0  0  0  0  0  0
  -34.8050   22.0310    6.0920 C   0  0  0  0  0  0  0  0  0  0  0  0
  -36.2230   21.9460    6.6650 C   0  0  0  0  0  0  0  0  0  0  0  0
  -37.0170   20.7360    6.1650 C   0  0  0  0  0  0  0  0  0  0  0  0
  -37.9960   20.2140    7.2140 C   0  0  0  0  0  0  0  0  0  0  0  0
  -39.4320   20.4510    6.8360 C   0  0  0  0  0  0  0  0  0  0  0  0
  -40.3650   20.5950    7.6080 O   0  0  0  0  0  0  0  0  0  0  0  0
  -39.6250   20.5200    5.5060 O   0  0  0  0  0  0  0  0  0  0  0  0
  -33.2964   25.8843    7.4600 H   0  0  0  0  0  0  0  0  0  0  0  0
  -31.7031   25.3995    6.7871 H   0  0  0  0  0  0  0  0  0  0  0  0
  -33.0702   24.2343    6.7871 H   0  0  0  0  0  0  0  0  0  0  0  0
  -31.0642   24.6175    8.7833 H   0  0  0  0  0  0  0  0  0  0  0  0
  -32.6646   25.1823    9.4602 H   0  0  0  0  0  0  0  0  0  0  0  0
  -33.0940   22.7132    8.1052 H   0  0  0  0  0  0  0  0  0  0  0  0
  -31.6598   22.5406    9.2210 H   0  0  0  0  0  0  0  0  0  0  0  0
  -32.9522   22.5021   11.0294 H   0  0  0  0  0  0  0  0  0  0  0  0
  -33.8634   23.9663   10.4833 H   0  0  0  0  0  0  0  0  0  0  0  0
  -35.6328   22.6587   10.1106 H   0  0  0  0  0  0  0  0  0  0  0  0
  -34.6594   21.8515    8.7931 H   0  0  0  0  0  0  0  0  0  0  0  0
  -34.2994   20.9371   11.6184 H   0  0  0  0  0  0  0  0  0  0  0  0
  -35.8058   20.4639   10.6663 H   0  0  0  0  0  0  0  0  0  0  0  0
  -32.9340   19.8617    9.9365 H   0  0  0  0  0  0  0  0  0  0  0  0
  -34.2326   18.7164   10.5739 H   0  0  0  0  0  0  0  0  0  0  0  0
  -35.2280   18.4894    8.5959 H   0  0  0  0  0  0  0  0  0  0  0  0
  -34.7999   20.1878    8.0768 H   0  0  0  0  0  0  0  0  0  0  0  0
  -32.9106   17.8136    8.1356 H   0  0  0  0  0  0  0  0  0  0  0  0
  -33.7379   18.5439    6.6710 H   0  0  0  0  0  0  0  0  0  0  0  0
  -32.0488   20.3089    8.3868 H   0  0  0  0  0  0  0  0  0  0  0  0
  -31.2600   19.0964    7.2511 H   0  0  0  0  0  0  0  0  0  0  0  0
  -32.6982   21.6287    6.6605 H   0  0  0  0  0  0  0  0  0  0  0  0
  -31.3152   20.7930    5.8216 H   0  0  0  0  0  0  0  0  0  0  0  0
  -32.7022   20.0461    4.2671 H   0  0  0  0  0  0  0  0  0  0  0  0
  -33.6358   19.1673    5.5682 H   0  0  0  0  0  0  0  0  0  0  0  0
  -34.2952   21.6112    4.0540 H   0  0  0  0  0  0  0  0  0  0  0  0
  -35.3395   20.3569    4.9177 H   0  0  0  0  0  0  0  0  0  0  0  0
  -34.0972   21.8585    6.9162 H   0  0  0  0  0  0  0  0  0  0  0  0
  -34.7267   23.0289    5.6359 H   0  0  0  0  0  0  0  0  0  0  0  0
  -36.1517   21.8859    7.7610 H   0  0  0  0  0  0  0  0  0  0  0  0
  -36.7604   22.8448    6.3282 H   0  0  0  0  0  0  0  0  0  0  0  0
  -37.5822   21.0294    5.2681 H   0  0  0  0  0  0  0  0  0  0  0  0
  -36.3009   19.9314    5.9420 H   0  0  0  0  0  0  0  0  0  0  0  0
  -37.8380   19.1322    7.3355 H   0  0  0  0  0  0  0  0  0  0  0  0
  -37.8039   20.7606    8.1491 H   0  0  0  0  0  0  0  0  0  0  0  0
  1  2  1  0
  2  3  1  0
  3  4  1  0
  4  5  1  0
  5  6  1  0
  6  7  1  0
  7  8  1  0
  8  9  1  0
  9 10  1  0
 10 11  1  0
 11 12  1  0
 12 13  1  0
 13 14  1  0
 14 15  1  0
 15 16  1  0
 16 17  1  0
 17 18  1  0
 18 19  2  0
 18 20  1  0
  1 21  1  0
  1 22  1  0
  1 23  1  0
  2 24  1  0
  2 25  1  0
  3 26  1  0
  3 27  1  0
  4 28  1  0
  4 29  1  0
  5 30  1  0
  5 31  1  0
  6 32  1  0
  6 33  1  0
  7 34  1  0
  7 35  1  0
  8 36  1  0
  8 37  1  0
  9 38  1  0
  9 39  1  0
 10 40  1  0
 10 41  1  0
 11 42  1  0
 11 43  1  0
 12 44  1  0
 12 45  1  0
 13 46  1  0
 13 47  1  0
 14 48  1  0
 14 49  1  0
 15 50  1  0
 15 51  1  0
 16 52  1  0
 16 53  1  0
 17 54  1  0
 17 55  1  0
M  CHG  1  20  -1
M  END
>  <meeko>  (1) 
{"is_sidechain": [false], "free_energy": -5.981, "intermolecular_energy": -11.575, "internal_energy": -2.689}

$$$$
stearate_Nlobe_run03
     RDKit          3D

 55 54  0  0  0  0  0  0  0  0999 V2000
  -39.4980   22.2340    7.3120 C   0  0  0  0  0  0  0  0  0  0  0  0
  -38.9370   20.8260    7.4380 C   0  0  0  0  0  0  0  0  0  0  0  0
  -37.4070   20.7770    7.4530 C   0  0  0  0  0  0  0  0  0  0  0  0
  -36.7860   20.8330    6.0550 C   0  0  0  0  0  0  0  0  0  0  0  0
  -35.7010   21.9100    5.9740 C   0  0  0  0  0  0  0  0  0  0  0  0
  -35.7560   22.9160    7.1280 C   0  0  0  0  0  0  0  0  0  0  0  0
  -34.9330   24.1940    6.9360 C   0  0  0  0  0  0  0  0  0  0  0  0
  -33.4320   23.9910    6.7070 C   0  0  0  0  0  0  0  0  0  0  0  0
  -32.5590   24.9680    7.4920 C   0  0  0  0  0  0  0  0  0  0  0  0
  -32.1020   24.4480    8.8610 C   0  0  0  0  0  0  0  0  0  0  0  0
  -32.5470   23.0180    9.1950 C   0  0  0  0  0  0  0  0  0  0  0  0
  -33.5690   22.9680   10.3350 C   0  0  0  0  0  0  0  0  0  0  0  0
  -34.7240   21.9950   10.0760 C   0  0  0  0  0  0  0  0  0  0  0  0
  -34.6360   20.6420   10.7890 C   0  0  0  0  0  0  0  0  0  0  0  0
  -33.9540   19.5160   10.0040 C   0  0  0  0  0  0  0  0  0  0  0  0
  -34.1560   19.6130    8.4890 C   0  0  0  0  0  0  0  0  0  0  0  0
  -32.8420   19.8370    7.7440 C   0  0  0  0  0  0  0  0  0  0  0  0
  -32.2760   18.5670    7.1720 C   0  0  0  0  0  0  0  0  0  0  0  0
  -32.5710   18.0680    6.1000 O   0  0  0  0  0  0  0  0  0  0  0  0
  -31.3480   17.9970    7.9620 O   0  0  0  0  0  0  0  0  0  0  0  0
  -39.6651   22.6533    8.3151 H   0  0  0  0  0  0  0  0  0  0  0  0
  -38.7830   22.8660    6.7649 H   0  0  0  0  0  0  0  0  0  0  0  0
  -40.4517   22.2011    6.7649 H   0  0  0  0  0  0  0  0  0  0  0  0
  -39.3086   20.3858    8.3751 H   0  0  0  0  0  0  0  0  0  0  0  0
  -39.2699   20.2648    6.5524 H   0  0  0  0  0  0  0  0  0  0  0  0
  -37.0359   21.6338    8.0345 H   0  0  0  0  0  0  0  0  0  0  0  0
  -37.1161   19.8152    7.9006 H   0  0  0  0  0  0  0  0  0  0  0  0
  -36.3393   19.8553    5.8214 H   0  0  0  0  0  0  0  0  0  0  0  0
  -37.5772   21.0806    5.3320 H   0  0  0  0  0  0  0  0  0  0  0  0
  -34.7180   21.4166    5.9880 H   0  0  0  0  0  0  0  0  0  0  0  0
  -35.8702   22.4726    5.0440 H   0  0  0  0  0  0  0  0  0  0  0  0
  -36.8066   23.2090    7.2710 H   0  0  0  0  0  0  0  0  0  0  0  0
  -35.3139   22.4024    7.9944 H   0  0  0  0  0  0  0  0  0  0  0  0
  -35.3383   24.7289    6.0644 H   0  0  0  0  0  0  0  0  0  0  0  0
  -35.0190   24.7501    7.8812 H   0  0  0  0  0  0  0  0  0  0  0  0
  -33.1687   22.9671    7.0108 H   0  0  0  0  0  0  0  0  0  0  0  0
  -33.2400   24.1713    5.6390 H   0  0  0  0  0  0  0  0  0  0  0  0
  -31.6643   25.1893    6.8915 H   0  0  0  0  0  0  0  0  0  0  0  0
  -33.1767   25.8578    7.6836 H   0  0  0  0  0  0  0  0  0  0  0  0
  -31.0027   24.4779    8.8874 H   0  0  0  0  0  0  0  0  0  0  0  0
  -32.5757   25.0994    9.6102 H   0  0  0  0  0  0  0  0  0  0  0  0
  -32.9992   22.5714    8.2972 H   0  0  0  0  0  0  0  0  0  0  0  0
  -31.6568   22.4609    9.5222 H   0  0  0  0  0  0  0  0  0  0  0  0
  -33.0508   22.6570   11.2541 H   0  0  0  0  0  0  0  0  0  0  0  0
  -34.0058   23.9737   10.4232 H   0  0  0  0  0  0  0  0  0  0  0  0
  -35.6550   22.4848   10.3976 H   0  0  0  0  0  0  0  0  0  0  0  0
  -34.6833   21.7664    9.0008 H   0  0  0  0  0  0  0  0  0  0  0  0
  -34.0750   20.7892   11.7237 H   0  0  0  0  0  0  0  0  0  0  0  0
  -35.6757   20.3148   10.9371 H   0  0  0  0  0  0  0  0  0  0  0  0
  -32.8747   19.5507   10.2135 H   0  0  0  0  0  0  0  0  0  0  0  0
  -34.4143   18.5717   10.3302 H   0  0  0  0  0  0  0  0  0  0  0  0
  -34.6104   18.6771    8.1318 H   0  0  0  0  0  0  0  0  0  0  0  0
  -34.8078   20.4765    8.2903 H   0  0  0  0  0  0  0  0  0  0  0  0
  -33.0202   20.5449    6.9211 H   0  0  0  0  0  0  0  0  0  0  0  0
  -32.1124   20.2298    8.4675 H   0  0  0  0  0  0  0  0  0  0  0  0
  1  2  1  0
  2  3  1  0
  3  4  1  0
  4  5  1  0
  5  6  1  0
  6  7  1  0
  7  8  1  0
  8  9  1  0
  9 10  1  0
 10 11  1  0
 11 12  1  0
 12 13  1  0
 13 14  1  0
 14 15  1  0
 15 16  1  0
 16 17  1  0
 17 18  1  0
 18 19  2  0
 18 20  1  0
  1 21  1  0
  1 22  1  0
  1 23  1  0
  2 24  1  0
  2 25  1  0
  3 26  1  0
  3 27  1  0
  4 28  1  0
  4 29  1  0
  5 30  1  0
  5 31  1  0
  6 32  1  0
  6 33  1  0
  7 34  1  0
  7 35  1  0
  8 36  1  0
  8 37  1  0
  9 38  1  0
  9 39  1  0
 10 40  1  0
 10 41  1  0
 11 42  1  0
 11 43  1  0
 12 44  1  0
 12 45  1  0
 13 46  1  0
 13 47  1  0
 14 48  1  0
 14 49  1  0
 15 50  1  0
 15 51  1  0
 16 52  1  0
 16 53  1  0
 17 54  1  0
 17 55  1  0
M  CHG  1  20  -1
M  END
>  <meeko>  (2) 
{"is_sidechain": [false], "free_energy": -5.938, "intermolecular_energy": -11.94, "internal_energy": -2.242}

$$$$
stearate_Nlobe_run03
     RDKit          3D

 55 54  0  0  0  0  0  0  0  0999 V2000
  -34.0980   22.6260   10.9820 C   0  0  0  0  0  0  0  0  0  0  0  0
  -34.4200   21.1400   11.0290 C   0  0  0  0  0  0  0  0  0  0  0  0
  -34.7220   20.5360    9.6560 C   0  0  0  0  0  0  0  0  0  0  0  0
  -33.7280   19.4480    9.2410 C   0  0  0  0  0  0  0  0  0  0  0  0
  -34.0610   18.8940    7.8540 C   0  0  0  0  0  0  0  0  0  0  0  0
  -32.8760   18.2010    7.1740 C   0  0  0  0  0  0  0  0  0  0  0  0
  -32.3840   18.8460    5.8740 C   0  0  0  0  0  0  0  0  0  0  0  0
  -33.2830   19.9420    5.2940 C   0  0  0  0  0  0  0  0  0  0  0  0
  -32.6400   21.3280    5.3120 C   0  0  0  0  0  0  0  0  0  0  0  0
  -31.9160   21.6730    6.6190 C   0  0  0  0  0  0  0  0  0  0  0  0
  -32.6310   22.7020    7.5050 C   0  0  0  0  0  0  0  0  0  0  0  0
  -33.7160   23.4790    6.7530 C   0  0  0  0  0  0  0  0  0  0  0  0
  -34.9040   23.8770    7.6340 C   0  0  0  0  0  0  0  0  0  0  0  0
  -36.1540   22.9980    7.5130 C   0  0  0  0  0  0  0  0  0  0  0  0
  -36.1940   22.0560    6.3050 C   0  0  0  0  0  0  0  0  0  0  0  0
  -36.8330   20.6970    6.6060 C   0  0  0  0  0  0  0  0  0  0  0  0
  -38.0370   20.8190    7.5370 C   0  0  0  0  0  0  0  0  0  0  0  0
  -39.3480   20.7460    6.8030 C   0  0  0  0  0  0  0  0  0  0  0  0
  -39.5210   20.9740    5.6190 O   0  0  0  0  0  0  0  0  0  0  0  0
  -40.3730   20.3650    7.5870 O   0  0  0  0  0  0  0  0  0  0  0  0
  -34.0136   23.0155   12.0073 H   0  0  0  0  0  0  0  0  0  0  0  0
  -33.1460   22.7783   10.4524 H   0  0  0  0  0  0  0  0  0  0  0  0
  -34.9016   23.1587   10.4524 H   0  0  0  0  0  0  0  0  0  0  0  0
  -33.5575   20.6105   11.4600 H   0  0  0  0  0  0  0  0  0  0  0  0
  -35.3281   21.0254   11.6391 H   0  0  0  0  0  0  0  0  0  0  0  0
  -35.7300   20.0964    9.6820 H   0  0  0  0  0  0  0  0  0  0  0  0
  -34.6428   21.3481    8.9183 H   0  0  0  0  0  0  0  0  0  0  0  0
  -32.7148   19.8758    9.2227 H   0  0  0  0  0  0  0  0  0  0  0  0
  -33.7885   18.6251    9.9685 H   0  0  0  0  0  0  0  0  0  0  0  0
  -34.8786   18.1654    7.9569 H   0  0  0  0  0  0  0  0  0  0  0  0
  -34.3426   19.7493    7.2222 H   0  0  0  0  0  0  0  0  0  0  0  0
  -32.0368   18.1918    7.8851 H   0  0  0  0  0  0  0  0  0  0  0  0
  -33.2354   17.1998    6.8939 H   0  0  0  0  0  0  0  0  0  0  0  0
  -31.3957   19.2878    6.0690 H   0  0  0  0  0  0  0  0  0  0  0  0
  -32.3729   18.0402    5.1253 H   0  0  0  0  0  0  0  0  0  0  0  0
  -33.5216   19.6820    4.2522 H   0  0  0  0  0  0  0  0  0  0  0  0
  -34.1815   19.9930    5.9265 H   0  0  0  0  0  0  0  0  0  0  0  0
  -31.9103   21.3795    4.4905 H   0  0  0  0  0  0  0  0  0  0  0  0
  -33.4582   22.0553    5.2047 H   0  0  0  0  0  0  0  0  0  0  0  0
  -31.7992   20.7458    7.1993 H   0  0  0  0  0  0  0  0  0  0  0  0
  -30.9587   22.1303    6.3284 H   0  0  0  0  0  0  0  0  0  0  0  0
  -33.0978   22.1746    8.3500 H   0  0  0  0  0  0  0  0  0  0  0  0
  -31.8776   23.4282    7.8441 H   0  0  0  0  0  0  0  0  0  0  0  0
  -33.2663   24.3943    6.3406 H   0  0  0  0  0  0  0  0  0  0  0  0
  -34.1042   22.8143    5.9672 H   0  0  0  0  0  0  0  0  0  0  0  0
  -34.5711   23.8464    8.6820 H   0  0  0  0  0  0  0  0  0  0  0  0
  -35.2088   24.8756    7.2878 H   0  0  0  0  0  0  0  0  0  0  0  0
  -36.2233   22.3832    8.4225 H   0  0  0  0  0  0  0  0  0  0  0  0
  -36.9954   23.6933    7.3769 H   0  0  0  0  0  0  0  0  0  0  0  0
  -36.7714   22.5418    5.5046 H   0  0  0  0  0  0  0  0  0  0  0  0
  -35.1513   21.8636    6.0122 H   0  0  0  0  0  0  0  0  0  0  0  0
  -37.1617   20.2427    5.6596 H   0  0  0  0  0  0  0  0  0  0  0  0
  -36.0792   20.0735    7.1090 H   0  0  0  0  0  0  0  0  0  0  0  0
  -37.9986   20.0007    8.2711 H   0  0  0  0  0  0  0  0  0  0  0  0
  -37.9827   21.8043    8.0231 H   0  0  0  0  0  0  0  0  0  0  0  0
  1  2  1  0
  2  3  1  0
  3  4  1  0
  4  5  1  0
  5  6  1  0
  6  7  1  0
  7  8  1  0
  8  9  1  0
  9 10  1  0
 10 11  1  0
 11 12  1  0
 12 13  1  0
 13 14  1  0
 14 15  1  0
 15 16  1  0
 16 17  1  0
 17 18  1  0
 18 19  2  0
 18 20  1  0
  1 21  1  0
  1 22  1  0
  1 23  1  0
  2 24  1  0
  2 25  1  0
  3 26  1  0
  3 27  1  0
  4 28  1  0
  4 29  1  0
  5 30  1  0
  5 31  1  0
  6 32  1  0
  6 33  1  0
  7 34  1  0
  7 35  1  0
  8 36  1  0
  8 37  1  0
  9 38  1  0
  9 39  1  0
 10 40  1  0
 10 41  1  0
 11 42  1  0
 11 43  1  0
 12 44  1  0
 12 45  1  0
 13 46  1  0
 13 47  1  0
 14 48  1  0
 14 49  1  0
 15 50  1  0
 15 51  1  0
 16 52  1  0
 16 53  1  0
 17 54  1  0
 17 55  1  0
M  CHG  1  20  -1
M  END
>  <meeko>  (3) 
{"is_sidechain": [false], "free_energy": -5.9, "intermolecular_energy": -11.062, "internal_energy": -3.047}

$$$$
stearate_Nlobe_run03
     RDKit          3D

 55 54  0  0  0  0  0  0  0  0999 V2000
  -32.2110   25.0130    6.8690 C   0  0  0  0  0  0  0  0  0  0  0  0
  -33.1860   24.3360    7.8210 C   0  0  0  0  0  0  0  0  0  0  0  0
  -34.5900   24.1610    7.2380 C   0  0  0  0  0  0  0  0  0  0  0  0
  -35.5590   23.4570    8.1910 C   0  0  0  0  0  0  0  0  0  0  0  0
  -34.8050   22.6900    9.2790 C   0  0  0  0  0  0  0  0  0  0  0  0
  -35.1970   21.2110    9.3650 C   0  0  0  0  0  0  0  0  0  0  0  0
  -34.0500   20.2080    9.2080 C   0  0  0  0  0  0  0  0  0  0  0  0
  -34.2910   19.0700    8.2120 C   0  0  0  0  0  0  0  0  0  0  0  0
  -33.0090   18.5360    7.5770 C   0  0  0  0  0  0  0  0  0  0  0  0
  -32.8870   18.8070    6.0720 C   0  0  0  0  0  0  0  0  0  0  0  0
  -32.2680   20.1610    5.7040 C   0  0  0  0  0  0  0  0  0  0  0  0
  -33.3200   21.2130    5.3400 C   0  0  0  0  0  0  0  0  0  0  0  0
  -34.6190   20.6130    4.7920 C   0  0  0  0  0  0  0  0  0  0  0  0
  -35.9050   21.3770    5.1240 C   0  0  0  0  0  0  0  0  0  0  0  0
  -37.1710   20.5260    5.2640 C   0  0  0  0  0  0  0  0  0  0  0  0
  -37.6480   20.3680    6.7100 C   0  0  0  0  0  0  0  0  0  0  0  0
  -38.3870   21.6070    7.2120 C   0  0  0  0  0  0  0  0  0  0  0  0
  -39.8580   21.3640    7.4090 C   0  0  0  0  0  0  0  0  0  0  0  0
  -40.3860   20.2870    7.6290 O   0  0  0  0  0  0  0  0  0  0  0  0
  -40.5940   22.4890    7.3460 O   0  0  0  0  0  0  0  0  0  0  0  0
  -31.4431   25.5462    7.4486 H   0  0  0  0  0  0  0  0  0  0  0  0
  -31.7303   24.2534    6.2351 H   0  0  0  0  0  0  0  0  0  0  0  0
  -32.7548   25.7288    6.2351 H   0  0  0  0  0  0  0  0  0  0  0  0
  -32.7892   23.3424    8.0765 H   0  0  0  0  0  0  0  0  0  0  0  0
  -33.2815   24.9876    8.7020 H   0  0  0  0  0  0  0  0  0  0  0  0
  -34.9954   25.1555    7.0000 H   0  0  0  0  0  0  0  0  0  0  0  0
  -34.4944   23.5269    6.3442 H   0  0  0  0  0  0  0  0  0  0  0  0
  -36.2061   24.2095    8.6653 H   0  0  0  0  0  0  0  0  0  0  0  0
  -36.1588   22.7400    7.6112 H   0  0  0  0  0  0  0  0  0  0  0  0
  -33.7275   22.7532    9.0669 H   0  0  0  0  0  0  0  0  0  0  0  0
  -35.0674   23.1516   10.2424 H   0  0  0  0  0  0  0  0  0  0  0  0
  -35.6617   21.0414   10.3475 H   0  0  0  0  0  0  0  0  0  0  0  0
  -35.8709   21.0302    8.5146 H   0  0  0  0  0  0  0  0  0  0  0  0
  -33.1595   20.7628    8.8775 H   0  0  0  0  0  0  0  0  0  0  0  0
  -33.9381   19.7262   10.1905 H   0  0  0  0  0  0  0  0  0  0  0  0
  -34.7882   18.2436    8.7409 H   0  0  0  0  0  0  0  0  0  0  0  0
  -34.9103   19.4767    7.3989 H   0  0  0  0  0  0  0  0  0  0  0  0
  -32.1528   19.0071    8.0820 H   0  0  0  0  0  0  0  0  0  0  0  0
  -33.0300   17.4429    7.6986 H   0  0  0  0  0  0  0  0  0  0  0  0
  -32.2620   18.0156    5.6326 H   0  0  0  0  0  0  0  0  0  0  0  0
  -33.9142   18.8222    5.6787 H   0  0  0  0  0  0  0  0  0  0  0  0
  -31.6868   20.5273    6.5631 H   0  0  0  0  0  0  0  0  0  0  0  0
  -31.6331   20.0063    4.8192 H   0  0  0  0  0  0  0  0  0  0  0  0
  -33.5585   21.7941    6.2430 H   0  0  0  0  0  0  0  0  0  0  0  0
  -32.8907   21.8383    4.5433 H   0  0  0  0  0  0  0  0  0  0  0  0
  -34.5306   20.5630    3.6967 H   0  0  0  0  0  0  0  0  0  0  0  0
  -34.7220   19.6330    5.2809 H   0  0  0  0  0  0  0  0  0  0  0  0
  -35.7470   21.9054    6.0757 H   0  0  0  0  0  0  0  0  0  0  0  0
  -36.0863   22.0419    4.2666 H   0  0  0  0  0  0  0  0  0  0  0  0
  -37.9751   21.0010    4.6828 H   0  0  0  0  0  0  0  0  0  0  0  0
  -36.9250   19.5196    4.8943 H   0  0  0  0  0  0  0  0  0  0  0  0
  -38.3260   19.5037    6.7670 H   0  0  0  0  0  0  0  0  0  0  0  0
  -36.7611   20.2234    7.3444 H   0  0  0  0  0  0  0  0  0  0  0  0
  -37.9488   21.9129    8.1734 H   0  0  0  0  0  0  0  0  0  0  0  0
  -38.2787   22.3912    6.4483 H   0  0  0  0  0  0  0  0  0  0  0  0
  1  2  1  0
  2  3  1  0
  3  4  1  0
  4  5  1  0
  5  6  1  0
  6  7  1  0
  7  8  1  0
  8  9  1  0
  9 10  1  0
 10 11  1  0
 11 12  1  0
 12 13  1  0
 13 14  1  0
 14 15  1  0
 15 16  1  0
 16 17  1  0
 17 18  1  0
 18 19  2  0
 18 20  1  0
  1 21  1  0
  1 22  1  0
  1 23  1  0
  2 24  1  0
  2 25  1  0
  3 26  1  0
  3 27  1  0
  4 28  1  0
  4 29  1  0
  5 30  1  0
  5 31  1  0
  6 32  1  0
  6 33  1  0
  7 34  1  0
  7 35  1  0
  8 36  1  0
  8 37  1  0
  9 38  1  0
  9 39  1  0
 10 40  1  0
 10 41  1  0
 11 42  1  0
 11 43  1  0
 12 44  1  0
 12 45  1  0
 13 46  1  0
 13 47  1  0
 14 48  1  0
 14 49  1  0
 15 50  1  0
 15 51  1  0
 16 52  1  0
 16 53  1  0
 17 54  1  0
 17 55  1  0
M  CHG  1  20  -1
M  END
>  <meeko>  (4) 
{"is_sidechain": [false], "free_energy": -5.897, "intermolecular_energy": -11.499, "internal_energy": -2.603}

$$$$
stearate_Nlobe_run03
     RDKit          3D

 55 54  0  0  0  0  0  0  0  0999 V2000
  -38.9370   20.7460    7.4350 C   0  0  0  0  0  0  0  0  0  0  0  0
  -37.6890   20.8500    6.5710 C   0  0  0  0  0  0  0  0  0  0  0  0
  -37.8970   20.3580    5.1360 C   0  0  0  0  0  0  0  0  0  0  0  0
  -36.6640   20.5430    4.2480 C   0  0  0  0  0  0  0  0  0  0  0  0
  -35.3960   20.7030    5.0890 C   0  0  0  0  0  0  0  0  0  0  0  0
  -34.1130   20.7510    4.2520 C   0  0  0  0  0  0  0  0  0  0  0  0
  -32.8150   20.9670    5.0370 C   0  0  0  0  0  0  0  0  0  0  0  0
  -32.8050   20.4240    6.4690 C   0  0  0  0  0  0  0  0  0  0  0  0
  -31.9230   21.2320    7.4200 C   0  0  0  0  0  0  0  0  0  0  0  0
  -31.7650   22.7080    7.0350 C   0  0  0  0  0  0  0  0  0  0  0  0
  -31.8430   23.6970    8.2050 C   0  0  0  0  0  0  0  0  0  0  0  0
  -32.9570   24.7350    8.0300 C   0  0  0  0  0  0  0  0  0  0  0  0
  -33.8080   24.5110    6.7760 C   0  0  0  0  0  0  0  0  0  0  0  0
  -35.1020   23.7160    6.9760 C   0  0  0  0  0  0  0  0  0  0  0  0
  -35.4650   23.3820    8.4260 C   0  0  0  0  0  0  0  0  0  0  0  0
  -35.2420   21.9120    8.7920 C   0  0  0  0  0  0  0  0  0  0  0  0
  -34.5510   21.7520   10.1450 C   0  0  0  0  0  0  0  0  0  0  0  0
  -34.4680   20.3170   10.5880 C   0  0  0  0  0  0  0  0  0  0  0  0
  -34.1350   19.3700    9.8960 O   0  0  0  0  0  0  0  0  0  0  0  0
  -34.7830   20.1440   11.8840 O   0  0  0  0  0  0  0  0  0  0  0  0
  -38.6509   20.7698    8.4969 H   0  0  0  0  0  0  0  0  0  0  0  0
  -39.6058   21.5915    7.2164 H   0  0  0  0  0  0  0  0  0  0  0  0
  -39.4566   19.8014    7.2164 H   0  0  0  0  0  0  0  0  0  0  0  0
  -37.3767   21.9041    6.5358 H   0  0  0  0  0  0  0  0  0  0  0  0
  -36.9248   20.2035    7.0272 H   0  0  0  0  0  0  0  0  0  0  0  0
  -38.1477   19.2874    5.1668 H   0  0  0  0  0  0  0  0  0  0  0  0
  -38.7067   20.9608    4.6990 H   0  0  0  0  0  0  0  0  0  0  0  0
  -36.5547   19.6625    3.5978 H   0  0  0  0  0  0  0  0  0  0  0  0
  -36.8009   21.4541    3.6470 H   0  0  0  0  0  0  0  0  0  0  0  0
  -35.4735   21.6385    5.6624 H   0  0  0  0  0  0  0  0  0  0  0  0
  -35.3254   19.8203    5.7415 H   0  0  0  0  0  0  0  0  0  0  0  0
  -34.0262   19.7969    3.7115 H   0  0  0  0  0  0  0  0  0  0  0  0
  -34.2159   21.6278    3.5958 H   0  0  0  0  0  0  0  0  0  0  0  0
  -32.0004   20.4764    4.4841 H   0  0  0  0  0  0  0  0  0  0  0  0
  -32.6992   22.0570    5.1295 H   0  0  0  0  0  0  0  0  0  0  0  0
  -33.8354   20.4371    6.8537 H   0  0  0  0  0  0  0  0  0  0  0  0
  -32.3889   19.4066    6.4269 H   0  0  0  0  0  0  0  0  0  0  0  0
  -32.3666   21.1840    8.4254 H   0  0  0  0  0  0  0  0  0  0  0  0
  -30.9188   20.7855    7.3735 H   0  0  0  0  0  0  0  0  0  0  0  0
  -30.7855   22.8307    6.5496 H   0  0  0  0  0  0  0  0  0  0  0  0
  -32.6130   22.9454    6.3758 H   0  0  0  0  0  0  0  0  0  0  0  0
  -32.0301   23.1328    9.1306 H   0  0  0  0  0  0  0  0  0  0  0  0
  -30.8870   24.2397    8.2451 H   0  0  0  0  0  0  0  0  0  0  0  0
  -33.6153   24.6913    8.9102 H   0  0  0  0  0  0  0  0  0  0  0  0
  -32.4716   25.7161    7.9212 H   0  0  0  0  0  0  0  0  0  0  0  0
  -34.0783   25.4978    6.3720 H   0  0  0  0  0  0  0  0  0  0  0  0
  -33.1876   23.9029    6.1012 H   0  0  0  0  0  0  0  0  0  0  0  0
  -35.9279   24.3036    6.5487 H   0  0  0  0  0  0  0  0  0  0  0  0
  -34.9362   22.7481    6.4803 H   0  0  0  0  0  0  0  0  0  0  0  0
  -34.8470   24.0033    9.0909 H   0  0  0  0  0  0  0  0  0  0  0  0
  -36.5400   23.5836    8.5435 H   0  0  0  0  0  0  0  0  0  0  0  0
  -36.2173   21.4047    8.8303 H   0  0  0  0  0  0  0  0  0  0  0  0
  -34.5896   21.4686    8.0254 H   0  0  0  0  0  0  0  0  0  0  0  0
  -33.5309   22.1565   10.0692 H   0  0  0  0  0  0  0  0  0  0  0  0
  -35.1498   22.2959   10.8904 H   0  0  0  0  0  0  0  0  0  0  0  0
  1  2  1  0
  2  3  1  0
  3  4  1  0
  4  5  1  0
  5  6  1  0
  6  7  1  0
  7  8  1  0
  8  9  1  0
  9 10  1  0
 10 11  1  0
 11 12  1  0
 12 13  1  0
 13 14  1  0
 14 15  1  0
 15 16  1  0
 16 17  1  0
 17 18  1  0
 18 19  2  0
 18 20  1  0
  1 21  1  0
  1 22  1  0
  1 23  1  0
  2 24  1  0
  2 25  1  0
  3 26  1  0
  3 27  1  0
  4 28  1  0
  4 29  1  0
  5 30  1  0
  5 31  1  0
  6 32  1  0
  6 33  1  0
  7 34  1  0
  7 35  1  0
  8 36  1  0
  8 37  1  0
  9 38  1  0
  9 39  1  0
 10 40  1  0
 10 41  1  0
 11 42  1  0
 11 43  1  0
 12 44  1  0
 12 45  1  0
 13 46  1  0
 13 47  1  0
 14 48  1  0
 14 49  1  0
 15 50  1  0
 15 51  1  0
 16 52  1  0
 16 53  1  0
 17 54  1  0
 17 55  1  0
M  CHG  1  20  -1
M  END
>  <meeko>  (5) 
{"is_sidechain": [false], "free_energy": -5.876, "intermolecular_energy": -11.342, "internal_energy": -2.72}

$$$$
stearate_Nlobe_run03
     RDKit          3D

 55 54  0  0  0  0  0  0  0  0999 V2000
  -39.6180   20.3730    7.5930 C   0  0  0  0  0  0  0  0  0  0  0  0
  -38.5930   21.3210    6.9880 C   0  0  0  0  0  0  0  0  0  0  0  0
  -37.1450   20.8780    7.2100 C   0  0  0  0  0  0  0  0  0  0  0  0
  -36.1310   21.6930    6.4030 C   0  0  0  0  0  0  0  0  0  0  0  0
  -35.4020   20.8140    5.3830 C   0  0  0  0  0  0  0  0  0  0  0  0
  -33.9050   21.1210    5.2760 C   0  0  0  0  0  0  0  0  0  0  0  0
  -32.9630   19.9540    5.5930 C   0  0  0  0  0  0  0  0  0  0  0  0
  -32.2680   20.0100    6.9560 C   0  0  0  0  0  0  0  0  0  0  0  0
  -32.8050   18.9870    7.9560 C   0  0  0  0  0  0  0  0  0  0  0  0
  -34.0970   19.4140    8.6650 C   0  0  0  0  0  0  0  0  0  0  0  0
  -34.0100   19.4670   10.1960 C   0  0  0  0  0  0  0  0  0  0  0  0
  -34.6830   20.7110   10.7840 C   0  0  0  0  0  0  0  0  0  0  0  0
  -34.7910   21.8730    9.7920 C   0  0  0  0  0  0  0  0  0  0  0  0
  -33.8090   23.0310   10.0040 C   0  0  0  0  0  0  0  0  0  0  0  0
  -32.5350   22.9920    9.1540 C   0  0  0  0  0  0  0  0  0  0  0  0
  -31.9070   24.3690    8.9260 C   0  0  0  0  0  0  0  0  0  0  0  0
  -32.7250   25.2250    7.9620 C   0  0  0  0  0  0  0  0  0  0  0  0
  -32.9570   24.5480    6.6390 C   0  0  0  0  0  0  0  0  0  0  0  0
  -32.1080   24.0130    5.9470 O   0  0  0  0  0  0  0  0  0  0  0  0
  -34.2480   24.5530    6.2610 O   0  0  0  0  0  0  0  0  0  0  0  0
  -39.5623   20.4245    8.6904 H   0  0  0  0  0  0  0  0  0  0  0  0
  -40.6262   20.6639    7.2630 H   0  0  0  0  0  0  0  0  0  0  0  0
  -39.4065   19.3452    7.2630 H   0  0  0  0  0  0  0  0  0  0  0  0
  -38.7751   21.3855    5.9051 H   0  0  0  0  0  0  0  0  0  0  0  0
  -38.7146   22.2920    7.4904 H   0  0  0  0  0  0  0  0  0  0  0  0
  -36.9073   20.9849    8.2787 H   0  0  0  0  0  0  0  0  0  0  0  0
  -37.0682   19.8346    6.8702 H   0  0  0  0  0  0  0  0  0  0  0  0
  -36.6593   22.4978    5.8708 H   0  0  0  0  0  0  0  0  0  0  0  0
  -35.3876   22.1111    7.0976 H   0  0  0  0  0  0  0  0  0  0  0  0
  -35.5219   19.7618    5.6805 H   0  0  0  0  0  0  0  0  0  0  0  0
  -35.8473   21.0208    4.3987 H   0  0  0  0  0  0  0  0  0  0  0  0
  -33.7003   21.4506    4.2467 H   0  0  0  0  0  0  0  0  0  0  0  0
  -33.7007   21.8870    6.0386 H   0  0  0  0  0  0  0  0  0  0  0  0
  -33.5507   19.0251    5.5518 H   0  0  0  0  0  0  0  0  0  0  0  0
  -32.1583   20.0079    4.8449 H   0  0  0  0  0  0  0  0  0  0  0  0
  -31.1945   19.8215    6.8075 H   0  0  0  0  0  0  0  0  0  0  0  0
  -32.4619   21.0074    7.3775 H   0  0  0  0  0  0  0  0  0  0  0  0
  -33.0021   18.0488    7.4166 H   0  0  0  0  0  0  0  0  0  0  0  0
  -32.0384   18.8784    8.7374 H   0  0  0  0  0  0  0  0  0  0  0  0
  -34.3689   20.4168    8.3038 H   0  0  0  0  0  0  0  0  0  0  0  0
  -34.8468   18.6454    8.4263 H   0  0  0  0  0  0  0  0  0  0  0  0
  -34.5018   18.5732   10.6075 H   0  0  0  0  0  0  0  0  0  0  0  0
  -32.9446   19.5064   10.4669 H   0  0  0  0  0  0  0  0  0  0  0  0
  -35.6969   20.4368   11.1110 H   0  0  0  0  0  0  0  0  0  0  0  0
  -34.0546   21.0551   11.6187 H   0  0  0  0  0  0  0  0  0  0  0  0
  -34.6234   21.4702    8.7822 H   0  0  0  0  0  0  0  0  0  0  0  0
  -35.7924   22.3016    9.9451 H   0  0  0  0  0  0  0  0  0  0  0  0
  -34.3382   23.9678    9.7753 H   0  0  0  0  0  0  0  0  0  0  0  0
  -33.4728   22.9489   11.0482 H   0  0  0  0  0  0  0  0  0  0  0  0
  -31.7975   22.3535    9.6623 H   0  0  0  0  0  0  0  0  0  0  0  0
  -32.8186   22.5997    8.1662 H   0  0  0  0  0  0  0  0  0  0  0  0
  -31.8382   24.8910    9.8918 H   0  0  0  0  0  0  0  0  0  0  0  0
  -30.9127   24.2165    8.4808 H   0  0  0  0  0  0  0  0  0  0  0  0
  -33.7002   25.4402    8.4231 H   0  0  0  0  0  0  0  0  0  0  0  0
  -32.1546   26.1455    7.7689 H   0  0  0  0  0  0  0  0  0  0  0  0
  1  2  1  0
  2  3  1  0
  3  4  1  0
  4  5  1  0
  5  6  1  0
  6  7  1  0
  7  8  1  0
  8  9  1  0
  9 10  1  0
 10 11  1  0
 11 12  1  0
 12 13  1  0
 13 14  1  0
 14 15  1  0
 15 16  1  0
 16 17  1  0
 17 18  1  0
 18 19  2  0
 18 20  1  0
  1 21  1  0
  1 22  1  0
  1 23  1  0
  2 24  1  0
  2 25  1  0
  3 26  1  0
  3 27  1  0
  4 28  1  0
  4 29  1  0
  5 30  1  0
  5 31  1  0
  6 32  1  0
  6 33  1  0
  7 34  1  0
  7 35  1  0
  8 36  1  0
  8 37  1  0
  9 38  1  0
  9 39  1  0
 10 40  1  0
 10 41  1  0
 11 42  1  0
 11 43  1  0
 12 44  1  0
 12 45  1  0
 13 46  1  0
 13 47  1  0
 14 48  1  0
 14 49  1  0
 15 50  1  0
 15 51  1  0
 16 52  1  0
 16 53  1  0
 17 54  1  0
 17 55  1  0
M  CHG  1  20  -1
M  END
>  <meeko>  (6) 
{"is_sidechain": [false], "free_energy": -5.868, "intermolecular_energy": -11.872, "internal_energy": -2.174}

$$$$
stearate_Nlobe_run03
     RDKit          3D

 55 54  0  0  0  0  0  0  0  0999 V2000
  -39.6640   20.6510    7.7260 C   0  0  0  0  0  0  0  0  0  0  0  0
  -38.6710   20.7270    6.5750 C   0  0  0  0  0  0  0  0  0  0  0  0
  -37.2130   20.5760    7.0150 C   0  0  0  0  0  0  0  0  0  0  0  0
  -36.3670   21.8230    6.7450 C   0  0  0  0  0  0  0  0  0  0  0  0
  -36.8060   22.9920    7.6310 C   0  0  0  0  0  0  0  0  0  0  0  0
  -35.7450   24.0910    7.7580 C   0  0  0  0  0  0  0  0  0  0  0  0
  -34.4000   23.7980    7.0850 C   0  0  0  0  0  0  0  0  0  0  0  0
  -33.1620   23.9730    7.9690 C   0  0  0  0  0  0  0  0  0  0  0  0
  -32.9830   22.8560    8.9950 C   0  0  0  0  0  0  0  0  0  0  0  0
  -33.8670   22.9940   10.2410 C   0  0  0  0  0  0  0  0  0  0  0  0
  -34.1900   21.6770   10.9580 C   0  0  0  0  0  0  0  0  0  0  0  0
  -34.9640   20.6960   10.0730 C   0  0  0  0  0  0  0  0  0  0  0  0
  -34.1150   19.5200    9.5770 C   0  0  0  0  0  0  0  0  0  0  0  0
  -34.0190   19.3550    8.0570 C   0  0  0  0  0  0  0  0  0  0  0  0
  -32.8210   18.5460    7.5470 C   0  0  0  0  0  0  0  0  0  0  0  0
  -32.2540   19.0590    6.2200 C   0  0  0  0  0  0  0  0  0  0  0  0
  -32.7920   20.4410    5.8580 C   0  0  0  0  0  0  0  0  0  0  0  0
  -33.2060   20.5420    4.4150 C   0  0  0  0  0  0  0  0  0  0  0  0
  -34.0740   21.2710    3.9660 O   0  0  0  0  0  0  0  0  0  0  0  0
  -32.4940   19.7410    3.6030 O   0  0  0  0  0  0  0  0  0  0  0  0
  -39.1212   20.6925    8.6819 H   0  0  0  0  0  0  0  0  0  0  0  0
  -40.3628   21.4983    7.6640 H   0  0  0  0  0  0  0  0  0  0  0  0
  -40.2257   19.7072    7.6640 H   0  0  0  0  0  0  0  0  0  0  0  0
  -38.9040   19.9236    5.8606 H   0  0  0  0  0  0  0  0  0  0  0  0
  -38.7716   21.7264    6.1266 H   0  0  0  0  0  0  0  0  0  0  0  0
  -37.1939   20.3682    8.0950 H   0  0  0  0  0  0  0  0  0  0  0  0
  -36.7786   19.7539    6.4272 H   0  0  0  0  0  0  0  0  0  0  0  0
  -35.3116   21.5924    6.9521 H   0  0  0  0  0  0  0  0  0  0  0  0
  -36.5010   22.1139    5.6927 H   0  0  0  0  0  0  0  0  0  0  0  0
  -37.7161   23.4341    7.1994 H   0  0  0  0  0  0  0  0  0  0  0  0
  -36.9781   22.5884    8.6397 H   0  0  0  0  0  0  0  0  0  0  0  0
  -36.1540   25.0088    7.3103 H   0  0  0  0  0  0  0  0  0  0  0  0
  -35.5295   24.1765    8.8333 H   0  0  0  0  0  0  0  0  0  0  0  0
  -34.4186   22.7563    6.7323 H   0  0  0  0  0  0  0  0  0  0  0  0
  -34.3002   24.5405    6.2796 H   0  0  0  0  0  0  0  0  0  0  0  0
  -32.2728   23.9971    7.3219 H   0  0  0  0  0  0  0  0  0  0  0  0
  -33.2951   24.9096    8.5304 H   0  0  0  0  0  0  0  0  0  0  0  0
  -33.2220   21.8993    8.5076 H   0  0  0  0  0  0  0  0  0  0  0  0
  -31.9404   22.9114    9.3414 H   0  0  0  0  0  0  0  0  0  0  0  0
  -33.3501   23.6527   10.9544 H   0  0  0  0  0  0  0  0  0  0  0  0
  -34.8291   23.3967    9.8913 H   0  0  0  0  0  0  0  0  0  0  0  0
  -33.2461   21.2035   11.2660 H   0  0  0  0  0  0  0  0  0  0  0  0
  -34.8262   21.9171   11.8226 H   0  0  0  0  0  0  0  0  0  0  0  0
  -35.8086   20.2956   10.6529 H   0  0  0  0  0  0  0  0  0  0  0  0
  -35.2953   21.2536    9.1845 H   0  0  0  0  0  0  0  0  0  0  0  0
  -33.0948   19.6537    9.9661 H   0  0  0  0  0  0  0  0  0  0  0  0
  -34.6210   18.6141    9.9422 H   0  0  0  0  0  0  0  0  0  0  0  0
  -34.9356   18.8531    7.7137 H   0  0  0  0  0  0  0  0  0  0  0  0
  -33.8864   20.3701    7.6546 H   0  0  0  0  0  0  0  0  0  0  0  0
  -32.0248   18.5886    8.3048 H   0  0  0  0  0  0  0  0  0  0  0  0
  -33.1766   17.5202    7.3704 H   0  0  0  0  0  0  0  0  0  0  0  0
  -31.1585   19.1156    6.3013 H   0  0  0  0  0  0  0  0  0  0  0  0
  -32.5615   18.3594    5.4288 H   0  0  0  0  0  0  0  0  0  0  0  0
  -33.6657   20.6556    6.4909 H   0  0  0  0  0  0  0  0  0  0  0  0
  -31.9824   21.1671    6.0235 H   0  0  0  0  0  0  0  0  0  0  0  0
  1  2  1  0
  2  3  1  0
  3  4  1  0
  4  5  1  0
  5  6  1  0
  6  7  1  0
  7  8  1  0
  8  9  1  0
  9 10  1  0
 10 11  1  0
 11 12  1  0
 12 13  1  0
 13 14  1  0
 14 15  1  0
 15 16  1  0
 16 17  1  0
 17 18  1  0
 18 19  2  0
 18 20  1  0
  1 21  1  0
  1 22  1  0
  1 23  1  0
  2 24  1  0
  2 25  1  0
  3 26  1  0
  3 27  1  0
  4 28  1  0
  4 29  1  0
  5 30  1  0
  5 31  1  0
  6 32  1  0
  6 33  1  0
  7 34  1  0
  7 35  1  0
  8 36  1  0
  8 37  1  0
  9 38  1  0
  9 39  1  0
 10 40  1  0
 10 41  1  0
 11 42  1  0
 11 43  1  0
 12 44  1  0
 12 45  1  0
 13 46  1  0
 13 47  1  0
 14 48  1  0
 14 49  1  0
 15 50  1  0
 15 51  1  0
 16 52  1  0
 16 53  1  0
 17 54  1  0
 17 55  1  0
M  CHG  1  20  -1
M  END
>  <meeko>  (7) 
{"is_sidechain": [false], "free_energy": -5.853, "intermolecular_energy": -11.742, "internal_energy": -2.274}

$$$$
stearate_Nlobe_run03
     RDKit          3D

 55 54  0  0  0  0  0  0  0  0999 V2000
  -34.4210   21.4160   11.1280 C   0  0  0  0  0  0  0  0  0  0  0  0
  -33.7290   22.7320   10.8060 C   0  0  0  0  0  0  0  0  0  0  0  0
  -32.8170   22.6590    9.5790 C   0  0  0  0  0  0  0  0  0  0  0  0
  -32.2350   24.0150    9.1750 C   0  0  0  0  0  0  0  0  0  0  0  0
  -32.0570   24.1110    7.6580 C   0  0  0  0  0  0  0  0  0  0  0  0
  -33.1480   24.9360    6.9680 C   0  0  0  0  0  0  0  0  0  0  0  0
  -34.4360   24.1800    6.6240 C   0  0  0  0  0  0  0  0  0  0  0  0
  -35.5070   24.1560    7.7180 C   0  0  0  0  0  0  0  0  0  0  0  0
  -36.5050   23.0100    7.5670 C   0  0  0  0  0  0  0  0  0  0  0  0
  -35.9460   21.6310    7.9400 C   0  0  0  0  0  0  0  0  0  0  0  0
  -36.3370   20.4920    6.9890 C   0  0  0  0  0  0  0  0  0  0  0  0
  -36.9270   21.0000    5.6700 C   0  0  0  0  0  0  0  0  0  0  0  0
  -35.8720   21.2560    4.5890 C   0  0  0  0  0  0  0  0  0  0  0  0
  -34.5950   20.4140    4.6820 C   0  0  0  0  0  0  0  0  0  0  0  0
  -33.2930   21.1940    4.8900 C   0  0  0  0  0  0  0  0  0  0  0  0
  -32.4860   20.7300    6.1060 C   0  0  0  0  0  0  0  0  0  0  0  0
  -32.9820   19.3930    6.6520 C   0  0  0  0  0  0  0  0  0  0  0  0
  -32.4510   19.0950    8.0270 C   0  0  0  0  0  0  0  0  0  0  0  0
  -33.1120   18.9860    9.0450 O   0  0  0  0  0  0  0  0  0  0  0  0
  -31.1170   18.9230    8.0530 O   0  0  0  0  0  0  0  0  0  0  0  0
  -34.4856   21.2931   12.2192 H   0  0  0  0  0  0  0  0  0  0  0  0
  -35.4338   21.4197   10.6988 H   0  0  0  0  0  0  0  0  0  0  0  0
  -33.8439   20.5837   10.6988 H   0  0  0  0  0  0  0  0  0  0  0  0
  -34.5000   23.4946   10.6217 H   0  0  0  0  0  0  0  0  0  0  0  0
  -33.0922   22.9816   11.6675 H   0  0  0  0  0  0  0  0  0  0  0  0
  -31.9852   21.9749    9.8027 H   0  0  0  0  0  0  0  0  0  0  0  0
  -33.4309   22.3047    8.7378 H   0  0  0  0  0  0  0  0  0  0  0  0
  -32.9169   24.8116    9.5074 H   0  0  0  0  0  0  0  0  0  0  0  0
  -31.2487   24.1260    9.6492 H   0  0  0  0  0  0  0  0  0  0  0  0
  -31.0829   24.5779    7.4502 H   0  0  0  0  0  0  0  0  0  0  0  0
  -32.1218   23.0883    7.2582 H   0  0  0  0  0  0  0  0  0  0  0  0
  -33.4134   25.7699    7.6345 H   0  0  0  0  0  0  0  0  0  0  0  0
  -32.7203   25.2528    6.0053 H   0  0  0  0  0  0  0  0  0  0  0  0
  -34.8753   24.6502    5.7319 H   0  0  0  0  0  0  0  0  0  0  0  0
  -34.1367   23.1319    6.4759 H   0  0  0  0  0  0  0  0  0  0  0  0
  -35.0071   24.0564    8.6928 H   0  0  0  0  0  0  0  0  0  0  0  0
  -36.0757   25.0939    7.6353 H   0  0  0  0  0  0  0  0  0  0  0  0
  -37.3689   23.2181    8.2154 H   0  0  0  0  0  0  0  0  0  0  0  0
  -36.7712   22.9634    6.5007 H   0  0  0  0  0  0  0  0  0  0  0  0
  -34.8483   21.7008    7.9551 H   0  0  0  0  0  0  0  0  0  0  0  0
  -36.3820   21.3776    8.9176 H   0  0  0  0  0  0  0  0  0  0  0  0
  -35.4399   19.8955    6.7667 H   0  0  0  0  0  0  0  0  0  0  0  0
  -37.1107   19.8916    7.4899 H   0  0  0  0  0  0  0  0  0  0  0  0
  -37.6366   20.2486    5.2934 H   0  0  0  0  0  0  0  0  0  0  0  0
  -37.4141   21.9631    5.8823 H   0  0  0  0  0  0  0  0  0  0  0  0
  -36.3362   21.0561    3.6120 H   0  0  0  0  0  0  0  0  0  0  0  0
  -35.5502   22.2983    4.7304 H   0  0  0  0  0  0  0  0  0  0  0  0
  -34.7103   19.7191    5.5269 H   0  0  0  0  0  0  0  0  0  0  0  0
  -34.4928   19.9193    3.7049 H   0  0  0  0  0  0  0  0  0  0  0  0
  -32.6688   21.0738    3.9923 H   0  0  0  0  0  0  0  0  0  0  0  0
  -33.5714   22.2429    5.0697 H   0  0  0  0  0  0  0  0  0  0  0  0
  -31.4316   20.6230    5.8114 H   0  0  0  0  0  0  0  0  0  0  0  0
  -32.6061   21.4836    6.8983 H   0  0  0  0  0  0  0  0  0  0  0  0
  -34.0808   19.4169    6.6966 H   0  0  0  0  0  0  0  0  0  0  0  0
  -32.6195   18.6034    5.9774 H   0  0  0  0  0  0  0  0  0  0  0  0
  1  2  1  0
  2  3  1  0
  3  4  1  0
  4  5  1  0
  5  6  1  0
  6  7  1  0
  7  8  1  0
  8  9  1  0
  9 10  1  0
 10 11  1  0
 11 12  1  0
 12 13  1  0
 13 14  1  0
 14 15  1  0
 15 16  1  0
 16 17  1  0
 17 18  1  0
 18 19  2  0
 18 20  1  0
  1 21  1  0
  1 22  1  0
  1 23  1  0
  2 24  1  0
  2 25  1  0
  3 26  1  0
  3 27  1  0
  4 28  1  0
  4 29  1  0
  5 30  1  0
  5 31  1  0
  6 32  1  0
  6 33  1  0
  7 34  1  0
  7 35  1  0
  8 36  1  0
  8 37  1  0
  9 38  1  0
  9 39  1  0
 10 40  1  0
 10 41  1  0
 11 42  1  0
 11 43  1  0
 12 44  1  0
 12 45  1  0
 13 46  1  0
 13 47  1  0
 14 48  1  0
 14 49  1  0
 15 50  1  0
 15 51  1  0
 16 52  1  0
 16 53  1  0
 17 54  1  0
 17 55  1  0
M  CHG  1  20  -1
M  END
>  <meeko>  (8) 
{"is_sidechain": [false], "free_energy": -5.834, "intermolecular_energy": -11.14, "internal_energy": -2.84}

$$$$
stearate_Nlobe_run03
     RDKit          3D

 55 54  0  0  0  0  0  0  0  0999 V2000
  -33.8010   18.8490    7.9880 C   0  0  0  0  0  0  0  0  0  0  0  0
  -32.3230   19.1380    8.2100 C   0  0  0  0  0  0  0  0  0  0  0  0
  -31.7590   20.1970    7.2590 C   0  0  0  0  0  0  0  0  0  0  0  0
  -32.4870   20.2540    5.9140 C   0  0  0  0  0  0  0  0  0  0  0  0
  -32.7360   21.7000    5.4800 C   0  0  0  0  0  0  0  0  0  0  0  0
  -31.7850   22.7050    6.1390 C   0  0  0  0  0  0  0  0  0  0  0  0
  -32.4230   24.0200    6.5990 C   0  0  0  0  0  0  0  0  0  0  0  0
  -32.1650   24.4110    8.0570 C   0  0  0  0  0  0  0  0  0  0  0  0
  -32.1770   23.2230    9.0170 C   0  0  0  0  0  0  0  0  0  0  0  0
  -33.4550   23.1000    9.8560 C   0  0  0  0  0  0  0  0  0  0  0  0
  -34.6180   22.3760    9.1670 C   0  0  0  0  0  0  0  0  0  0  0  0
  -35.5920   23.3390    8.4810 C   0  0  0  0  0  0  0  0  0  0  0  0
  -35.9550   22.9250    7.0510 C   0  0  0  0  0  0  0  0  0  0  0  0
  -35.8790   21.4250    6.7460 C   0  0  0  0  0  0  0  0  0  0  0  0
  -36.5120   20.9790    5.4240 C   0  0  0  0  0  0  0  0  0  0  0  0
  -37.9200   20.3980    5.5820 C   0  0  0  0  0  0  0  0  0  0  0  0
  -38.3420   20.2970    7.0470 C   0  0  0  0  0  0  0  0  0  0  0  0
  -39.7730   20.7030    7.2670 C   0  0  0  0  0  0  0  0  0  0  0  0
  -40.6750   19.9770    7.6500 O   0  0  0  0  0  0  0  0  0  0  0  0
  -39.9980   22.0060    7.0200 O   0  0  0  0  0  0  0  0  0  0  0  0
  -34.3054   18.7504    8.9605 H   0  0  0  0  0  0  0  0  0  0  0  0
  -34.2551   19.6754    7.4215 H   0  0  0  0  0  0  0  0  0  0  0  0
  -33.9104   17.9124    7.4215 H   0  0  0  0  0  0  0  0  0  0  0  0
  -32.1884   19.4906    9.2432 H   0  0  0  0  0  0  0  0  0  0  0  0
  -31.7772   18.2032    8.0142 H   0  0  0  0  0  0  0  0  0  0  0  0
  -31.8432   21.1811    7.7433 H   0  0  0  0  0  0  0  0  0  0  0  0
  -30.7137   19.9243    7.0517 H   0  0  0  0  0  0  0  0  0  0  0  0
  -31.8730   19.7515    5.1521 H   0  0  0  0  0  0  0  0  0  0  0  0
  -33.4591   19.7508    6.0227 H   0  0  0  0  0  0  0  0  0  0  0  0
  -32.6093   21.7635    4.3892 H   0  0  0  0  0  0  0  0  0  0  0  0
  -33.7564   21.9629    5.7957 H   0  0  0  0  0  0  0  0  0  0  0  0
  -31.3379   22.2201    7.0193 H   0  0  0  0  0  0  0  0  0  0  0  0
  -31.0555   22.9808    5.3632 H   0  0  0  0  0  0  0  0  0  0  0  0
  -32.0339   24.8259    5.9594 H   0  0  0  0  0  0  0  0  0  0  0  0
  -33.5096   23.8698    6.5175 H   0  0  0  0  0  0  0  0  0  0  0  0
  -31.1806   24.8982    8.1180 H   0  0  0  0  0  0  0  0  0  0  0  0
  -32.9817   25.0819    8.3618 H   0  0  0  0  0  0  0  0  0  0  0  0
  -32.0631   22.3021    8.4263 H   0  0  0  0  0  0  0  0  0  0  0  0
  -31.3505   23.3829    9.7251 H   0  0  0  0  0  0  0  0  0  0  0  0
  -33.2074   22.5492   10.7754 H   0  0  0  0  0  0  0  0  0  0  0  0
  -33.8003   24.1279   10.0408 H   0  0  0  0  0  0  0  0  0  0  0  0
  -34.2073   21.6923    8.4095 H   0  0  0  0  0  0  0  0  0  0  0  0
  -35.1784   21.8345    9.9434 H   0  0  0  0  0  0  0  0  0  0  0  0
  -36.5161   23.3823    9.0762 H   0  0  0  0  0  0  0  0  0  0  0  0
  -35.0905   24.3160    8.4177 H   0  0  0  0  0  0  0  0  0  0  0  0
  -36.9857   23.2562    6.8561 H   0  0  0  0  0  0  0  0  0  0  0  0
  -35.2005   23.3976    6.4049 H   0  0  0  0  0  0  0  0  0  0  0  0
  -34.8172   21.1385    6.7250 H   0  0  0  0  0  0  0  0  0  0  0  0
  -36.4612   20.9301    7.5372 H   0  0  0  0  0  0  0  0  0  0  0  0
  -36.5686   21.8500    4.7546 H   0  0  0  0  0  0  0  0  0  0  0  0
  -35.8771   20.1782    5.0171 H   0  0  0  0  0  0  0  0  0  0  0  0
  -38.6326   21.0472    5.0521 H   0  0  0  0  0  0  0  0  0  0  0  0
  -37.9149   19.3816    5.1614 H   0  0  0  0  0  0  0  0  0  0  0  0
  -38.2165   19.2557    7.3786 H   0  0  0  0  0  0  0  0  0  0  0  0
  -37.7081   20.9864    7.6241 H   0  0  0  0  0  0  0  0  0  0  0  0
  1  2  1  0
  2  3  1  0
  3  4  1  0
  4  5  1  0
  5  6  1  0
  6  7  1  0
  7  8  1  0
  8  9  1  0
  9 10  1  0
 10 11  1  0
 11 12  1  0
 12 13  1  0
 13 14  1  0
 14 15  1  0
 15 16  1  0
 16 17  1  0
 17 18  1  0
 18 19  2  0
 18 20  1  0
  1 21  1  0
  1 22  1  0
  1 23  1  0
  2 24  1  0
  2 25  1  0
  3 26  1  0
  3 27  1  0
  4 28  1  0
  4 29  1  0
  5 30  1  0
  5 31  1  0
  6 32  1  0
  6 33  1  0
  7 34  1  0
  7 35  1  0
  8 36  1  0
  8 37  1  0
  9 38  1  0
  9 39  1  0
 10 40  1  0
 10 41  1  0
 11 42  1  0
 11 43  1  0
 12 44  1  0
 12 45  1  0
 13 46  1  0
 13 47  1  0
 14 48  1  0
 14 49  1  0
 15 50  1  0
 15 51  1  0
 16 52  1  0
 16 53  1  0
 17 54  1  0
 17 55  1  0
M  CHG  1  20  -1
M  END
>  <meeko>  (9) 
{"is_sidechain": [false], "free_energy": -5.829, "intermolecular_energy": -11.355, "internal_energy": -2.615}

$$$$
stearate_Nlobe_run03
     RDKit          3D

 55 54  0  0  0  0  0  0  0  0999 V2000
  -33.5740   20.8050    4.5770 C   0  0  0  0  0  0  0  0  0  0  0  0
  -32.9320   19.7750    5.4940 C   0  0  0  0  0  0  0  0  0  0  0  0
  -32.9680   20.1660    6.9740 C   0  0  0  0  0  0  0  0  0  0  0  0
  -34.2070   19.6470    7.7070 C   0  0  0  0  0  0  0  0  0  0  0  0
  -34.0240   19.7220    9.2250 C   0  0  0  0  0  0  0  0  0  0  0  0
  -34.8920   20.7960    9.8900 C   0  0  0  0  0  0  0  0  0  0  0  0
  -34.2080   21.6190   10.9860 C   0  0  0  0  0  0  0  0  0  0  0  0
  -33.7300   23.0140   10.5700 C   0  0  0  0  0  0  0  0  0  0  0  0
  -32.6830   22.9910    9.4570 C   0  0  0  0  0  0  0  0  0  0  0  0
  -32.1190   24.3700    9.0910 C   0  0  0  0  0  0  0  0  0  0  0  0
  -32.3530   24.8030    7.6380 C   0  0  0  0  0  0  0  0  0  0  0  0
  -33.2470   23.8280    6.8670 C   0  0  0  0  0  0  0  0  0  0  0  0
  -34.7030   24.2940    6.7530 C   0  0  0  0  0  0  0  0  0  0  0  0
  -35.7310   23.4870    7.5540 C   0  0  0  0  0  0  0  0  0  0  0  0
  -36.3190   22.2630    6.8440 C   0  0  0  0  0  0  0  0  0  0  0  0
  -37.7510   21.9340    7.2740 C   0  0  0  0  0  0  0  0  0  0  0  0
  -38.0610   20.4430    7.1550 C   0  0  0  0  0  0  0  0  0  0  0  0
  -39.4440   20.1780    6.6280 C   0  0  0  0  0  0  0  0  0  0  0  0
  -39.7470   20.0030    5.4600 O   0  0  0  0  0  0  0  0  0  0  0  0
  -40.3780   20.1220    7.5950 O   0  0  0  0  0  0  0  0  0  0  0  0
  -34.0594   21.5838    5.1834 H   0  0  0  0  0  0  0  0  0  0  0  0
  -32.8012   21.2631    3.9422 H   0  0  0  0  0  0  0  0  0  0  0  0
  -34.3256   20.3129    3.9422 H   0  0  0  0  0  0  0  0  0  0  0  0
  -33.4659   18.8209    5.3732 H   0  0  0  0  0  0  0  0  0  0  0  0
  -31.8732   19.7010    5.2052 H   0  0  0  0  0  0  0  0  0  0  0  0
  -32.0738   19.7551    7.4656 H   0  0  0  0  0  0  0  0  0  0  0  0
  -32.9984   21.2646    7.0202 H   0  0  0  0  0  0  0  0  0  0  0  0
  -35.0758   20.2574    7.4197 H   0  0  0  0  0  0  0  0  0  0  0  0
  -34.3625   18.5948    7.4264 H   0  0  0  0  0  0  0  0  0  0  0  0
  -34.2865   18.7449    9.6566 H   0  0  0  0  0  0  0  0  0  0  0  0
  -32.9740   19.9907    9.4128 H   0  0  0  0  0  0  0  0  0  0  0  0
  -35.2292   21.4907    9.1066 H   0  0  0  0  0  0  0  0  0  0  0  0
  -35.7095   20.2543   10.3883 H   0  0  0  0  0  0  0  0  0  0  0  0
  -34.9226   21.7396   11.8135 H   0  0  0  0  0  0  0  0  0  0  0  0
  -33.3003   21.0601   11.2577 H   0  0  0  0  0  0  0  0  0  0  0  0
  -34.5990   23.5899   10.2191 H   0  0  0  0  0  0  0  0  0  0  0  0
  -33.2563   23.4707   11.4515 H   0  0  0  0  0  0  0  0  0  0  0  0
  -31.8482   22.3529    9.7827 H   0  0  0  0  0  0  0  0  0  0  0  0
  -33.1882   22.6089    8.5577 H   0  0  0  0  0  0  0  0  0  0  0  0
  -32.5887   25.1160    9.7489 H   0  0  0  0  0  0  0  0  0  0  0  0
  -31.0287   24.2991    9.2182 H   0  0  0  0  0  0  0  0  0  0  0  0
  -32.8314   25.7935    7.6388 H   0  0  0  0  0  0  0  0  0  0  0  0
  -31.3744   24.8240    7.1361 H   0  0  0  0  0  0  0  0  0  0  0  0
  -32.8389   23.7091    5.8524 H   0  0  0  0  0  0  0  0  0  0  0  0
  -33.2528   22.8815    7.4275 H   0  0  0  0  0  0  0  0  0  0  0  0
  -34.7506   25.3372    7.0987 H   0  0  0  0  0  0  0  0  0  0  0  0
  -34.9765   24.1573    5.6963 H   0  0  0  0  0  0  0  0  0  0  0  0
  -35.2426   23.1396    8.4764 H   0  0  0  0  0  0  0  0  0  0  0  0
  -36.5776   24.1682    7.7247 H   0  0  0  0  0  0  0  0  0  0  0  0
  -36.3166   22.4548    5.7609 H   0  0  0  0  0  0  0  0  0  0  0  0
  -35.6939   21.4002    7.1176 H   0  0  0  0  0  0  0  0  0  0  0  0
  -37.8858   22.2413    8.3216 H   0  0  0  0  0  0  0  0  0  0  0  0
  -38.4370   22.4759    6.6064 H   0  0  0  0  0  0  0  0  0  0  0  0
  -37.3304   19.9851    6.4719 H   0  0  0  0  0  0  0  0  0  0  0  0
  -38.0015   20.0097    8.1643 H   0  0  0  0  0  0  0  0  0  0  0  0
  1  2  1  0
  2  3  1  0
  3  4  1  0
  4  5  1  0
  5  6  1  0
  6  7  1  0
  7  8  1  0
  8  9  1  0
  9 10  1  0
 10 11  1  0
 11 12  1  0
 12 13  1  0
 13 14  1  0
 14 15  1  0
 15 16  1  0
 16 17  1  0
 17 18  1  0
 18 19  2  0
 18 20  1  0
  1 21  1  0
  1 22  1  0
  1 23  1  0
  2 24  1  0
  2 25  1  0
  3 26  1  0
  3 27  1  0
  4 28  1  0
  4 29  1  0
  5 30  1  0
  5 31  1  0
  6 32  1  0
  6 33  1  0
  7 34  1  0
  7 35  1  0
  8 36  1  0
  8 37  1  0
  9 38  1  0
  9 39  1  0
 10 40  1  0
 10 41  1  0
 11 42  1  0
 11 43  1  0
 12 44  1  0
 12 45  1  0
 13 46  1  0
 13 47  1  0
 14 48  1  0
 14 49  1  0
 15 50  1  0
 15 51  1  0
 16 52  1  0
 16 53  1  0
 17 54  1  0
 17 55  1  0
M  CHG  1  20  -1
M  END
>  <meeko>  (10) 
{"is_sidechain": [false], "free_energy": -5.822, "intermolecular_energy": -11.519, "internal_energy": -2.438}

$$$$
stearate_Nlobe_run03
     RDKit          3D

 55 54  0  0  0  0  0  0  0  0999 V2000
  -39.5470   20.4190    7.6910 C   0  0  0  0  0  0  0  0  0  0  0  0
  -38.6660   19.7550    6.6430 C   0  0  0  0  0  0  0  0  0  0  0  0
  -38.3420   20.6610    5.4530 C   0  0  0  0  0  0  0  0  0  0  0  0
  -36.9900   20.3510    4.8060 C   0  0  0  0  0  0  0  0  0  0  0  0
  -35.8370   20.9250    5.6330 C   0  0  0  0  0  0  0  0  0  0  0  0
  -36.1790   22.2550    6.3140 C   0  0  0  0  0  0  0  0  0  0  0  0
  -35.7040   22.4010    7.7630 C   0  0  0  0  0  0  0  0  0  0  0  0
  -35.4140   21.0920    8.5040 C   0  0  0  0  0  0  0  0  0  0  0  0
  -34.7930   21.3000    9.8840 C   0  0  0  0  0  0  0  0  0  0  0  0
  -34.3210   22.7340   10.1560 C   0  0  0  0  0  0  0  0  0  0  0  0
  -32.8320   22.9900    9.8900 C   0  0  0  0  0  0  0  0  0  0  0  0
  -32.5920   24.2120    8.9970 C   0  0  0  0  0  0  0  0  0  0  0  0
  -31.7710   23.8990    7.7420 C   0  0  0  0  0  0  0  0  0  0  0  0
  -32.5730   23.5510    6.4840 C   0  0  0  0  0  0  0  0  0  0  0  0
  -32.2880   22.1770    5.8680 C   0  0  0  0  0  0  0  0  0  0  0  0
  -32.0210   21.0830    6.9050 C   0  0  0  0  0  0  0  0  0  0  0  0
  -32.4660   19.7050    6.4190 C   0  0  0  0  0  0  0  0  0  0  0  0
  -31.6790   18.5870    7.0440 C   0  0  0  0  0  0  0  0  0  0  0  0
  -31.0170   17.7540    6.4490 O   0  0  0  0  0  0  0  0  0  0  0  0
  -31.7400   18.5840    8.3880 O   0  0  0  0  0  0  0  0  0  0  0  0
  -39.1889   20.1491    8.6954 H   0  0  0  0  0  0  0  0  0  0  0  0
  -39.5039   21.5112    7.5676 H   0  0  0  0  0  0  0  0  0  0  0  0
  -40.5851   20.0767    7.5676 H   0  0  0  0  0  0  0  0  0  0  0  0
  -37.7211   19.4572    7.1209 H   0  0  0  0  0  0  0  0  0  0  0  0
  -39.2253   18.8932    6.2499 H   0  0  0  0  0  0  0  0  0  0  0  0
  -39.1288   20.5358    4.6946 H   0  0  0  0  0  0  0  0  0  0  0  0
  -38.2924   21.6922    5.8328 H   0  0  0  0  0  0  0  0  0  0  0  0
  -36.8697   19.2602    4.7310 H   0  0  0  0  0  0  0  0  0  0  0  0
  -36.9670   20.8129    3.8079 H   0  0  0  0  0  0  0  0  0  0  0  0
  -35.5679   20.1945    6.4101 H   0  0  0  0  0  0  0  0  0  0  0  0
  -35.0057   21.1198    4.9395 H   0  0  0  0  0  0  0  0  0  0  0  0
  -35.7213   23.0636    5.7252 H   0  0  0  0  0  0  0  0  0  0  0  0
  -37.2775   22.2981    6.3529 H   0  0  0  0  0  0  0  0  0  0  0  0
  -34.7797   22.9974    7.7568 H   0  0  0  0  0  0  0  0  0  0  0  0
  -36.5370   22.8730    8.3046 H   0  0  0  0  0  0  0  0  0  0  0  0
  -36.3598   20.5439    8.6264 H   0  0  0  0  0  0  0  0  0  0  0  0
  -34.6839   20.5326    7.9007 H   0  0  0  0  0  0  0  0  0  0  0  0
  -35.5440   21.0351   10.6428 H   0  0  0  0  0  0  0  0  0  0  0  0
  -33.8983   20.6614    9.9255 H   0  0  0  0  0  0  0  0  0  0  0  0
  -34.9033   23.4119    9.5146 H   0  0  0  0  0  0  0  0  0  0  0  0
  -34.4748   22.9086   11.2311 H   0  0  0  0  0  0  0  0  0  0  0  0
  -32.3255   23.1529   10.8528 H   0  0  0  0  0  0  0  0  0  0  0  0
  -32.4326   22.1105    9.3637 H   0  0  0  0  0  0  0  0  0  0  0  0
  -33.5678   24.6118    8.6841 H   0  0  0  0  0  0  0  0  0  0  0  0
  -32.0148   24.9375    9.5891 H   0  0  0  0  0  0  0  0  0  0  0  0
  -31.1544   24.7811    7.5146 H   0  0  0  0  0  0  0  0  0  0  0  0
  -31.1924   22.9953    7.9841 H   0  0  0  0  0  0  0  0  0  0  0  0
  -33.6412   23.5889    6.7439 H   0  0  0  0  0  0  0  0  0  0  0  0
  -32.2699   24.2867    5.7245 H   0  0  0  0  0  0  0  0  0  0  0  0
  -33.1583   21.8792    5.2648 H   0  0  0  0  0  0  0  0  0  0  0  0
  -31.3744   22.2780    5.2637 H   0  0  0  0  0  0  0  0  0  0  0  0
  -30.9421   21.0522    7.1174 H   0  0  0  0  0  0  0  0  0  0  0  0
  -32.6005   21.3255    7.8080 H   0  0  0  0  0  0  0  0  0  0  0  0
  -33.5286   19.5699    6.6691 H   0  0  0  0  0  0  0  0  0  0  0  0
  -32.2952   19.6647    5.3331 H   0  0  0  0  0  0  0  0  0  0  0  0
  1  2  1  0
  2  3  1  0
  3  4  1  0
  4  5  1  0
  5  6  1  0
  6  7  1  0
  7  8  1  0
  8  9  1  0
  9 10  1  0
 10 11  1  0
 11 12  1  0
 12 13  1  0
 13 14  1  0
 14 15  1  0
 15 16  1  0
 16 17  1  0
 17 18  1  0
 18 19  2  0
 18 20  1  0
  1 21  1  0
  1 22  1  0
  1 23  1  0
  2 24  1  0
  2 25  1  0
  3 26  1  0
  3 27  1  0
  4 28  1  0
  4 29  1  0
  5 30  1  0
  5 31  1  0
  6 32  1  0
  6 33  1  0
  7 34  1  0
  7 35  1  0
  8 36  1  0
  8 37  1  0
  9 38  1  0
  9 39  1  0
 10 40  1  0
 10 41  1  0
 11 42  1  0
 11 43  1  0
 12 44  1  0
 12 45  1  0
 13 46  1  0
 13 47  1  0
 14 48  1  0
 14 49  1  0
 15 50  1  0
 15 51  1  0
 16 52  1  0
 16 53  1  0
 17 54  1  0
 17 55  1  0
M  CHG  1  20  -1
M  END
>  <meeko>  (11) 
{"is_sidechain": [false], "free_energy": -5.82, "intermolecular_energy": -11.243, "internal_energy": -2.71}

$$$$
stearate_Nlobe_run03
     RDKit          3D

 55 54  0  0  0  0  0  0  0  0999 V2000
  -32.3590   23.8480    6.3870 C   0  0  0  0  0  0  0  0  0  0  0  0
  -32.5440   24.9780    7.3890 C   0  0  0  0  0  0  0  0  0  0  0  0
  -32.1550   24.5950    8.8190 C   0  0  0  0  0  0  0  0  0  0  0  0
  -32.4740   23.1390    9.1660 C   0  0  0  0  0  0  0  0  0  0  0  0
  -33.6440   23.0480   10.1490 C   0  0  0  0  0  0  0  0  0  0  0  0
  -34.5810   21.8670    9.8720 C   0  0  0  0  0  0  0  0  0  0  0  0
  -35.1780   21.8090    8.4620 C   0  0  0  0  0  0  0  0  0  0  0  0
  -35.9670   23.0460    8.0220 C   0  0  0  0  0  0  0  0  0  0  0  0
  -37.2590   22.7110    7.2790 C   0  0  0  0  0  0  0  0  0  0  0  0
  -37.8570   21.3440    7.6350 C   0  0  0  0  0  0  0  0  0  0  0  0
  -37.6920   20.2630    6.5600 C   0  0  0  0  0  0  0  0  0  0  0  0
  -37.7780   20.8250    5.1370 C   0  0  0  0  0  0  0  0  0  0  0  0
  -36.5180   20.5700    4.3030 C   0  0  0  0  0  0  0  0  0  0  0  0
  -35.2440   21.2780    4.7760 C   0  0  0  0  0  0  0  0  0  0  0  0
  -33.9680   20.4310    4.7740 C   0  0  0  0  0  0  0  0  0  0  0  0
  -33.7200   19.6910    6.0920 C   0  0  0  0  0  0  0  0  0  0  0  0
  -32.3220   19.9550    6.6480 C   0  0  0  0  0  0  0  0  0  0  0  0
  -31.6500   18.7040    7.1440 C   0  0  0  0  0  0  0  0  0  0  0  0
  -31.4650   18.4030    8.3110 O   0  0  0  0  0  0  0  0  0  0  0  0
  -31.2660   17.8810    6.1520 O   0  0  0  0  0  0  0  0  0  0  0  0
  -32.2041   22.9017    6.9260 H   0  0  0  0  0  0  0  0  0  0  0  0
  -33.2559   23.7676    5.7553 H   0  0  0  0  0  0  0  0  0  0  0  0
  -31.4832   24.0578    5.7553 H   0  0  0  0  0  0  0  0  0  0  0  0
  -31.9208   25.8280    7.0743 H   0  0  0  0  0  0  0  0  0  0  0  0
  -33.6151   25.2282    7.4008 H   0  0  0  0  0  0  0  0  0  0  0  0
  -31.0733   24.7535    8.9405 H   0  0  0  0  0  0  0  0  0  0  0  0
  -32.7465   25.2277    9.4971 H   0  0  0  0  0  0  0  0  0  0  0  0
  -32.7371   22.5997    8.2441 H   0  0  0  0  0  0  0  0  0  0  0  0
  -31.5870   22.6908    9.6376 H   0  0  0  0  0  0  0  0  0  0  0  0
  -33.2378   22.9399   11.1655 H   0  0  0  0  0  0  0  0  0  0  0  0
  -34.2372   23.9672   10.0340 H   0  0  0  0  0  0  0  0  0  0  0  0
  -34.0134   20.9393   10.0371 H   0  0  0  0  0  0  0  0  0  0  0  0
  -35.4345   21.9951   10.5540 H   0  0  0  0  0  0  0  0  0  0  0  0
  -34.3512   21.6652    7.7508 H   0  0  0  0  0  0  0  0  0  0  0  0
  -35.9028   20.9817    8.4777 H   0  0  0  0  0  0  0  0  0  0  0  0
  -36.2218   23.6330    8.9167 H   0  0  0  0  0  0  0  0  0  0  0  0
  -35.3279   23.6065    7.3239 H   0  0  0  0  0  0  0  0  0  0  0  0
  -38.0035   23.4850    7.5169 H   0  0  0  0  0  0  0  0  0  0  0  0
  -37.0061   22.6746    6.2091 H   0  0  0  0  0  0  0  0  0  0  0  0
  -37.3696   20.9877    8.5545 H   0  0  0  0  0  0  0  0  0  0  0  0
  -38.9397   21.5026    7.7469 H   0  0  0  0  0  0  0  0  0  0  0  0
  -36.7103   19.7842    6.6904 H   0  0  0  0  0  0  0  0  0  0  0  0
  -38.5153   19.5440    6.6832 H   0  0  0  0  0  0  0  0  0  0  0  0
  -38.6332   20.3561    4.6284 H   0  0  0  0  0  0  0  0  0  0  0  0
  -37.8927   21.9154    5.2257 H   0  0  0  0  0  0  0  0  0  0  0  0
  -36.3235   19.4874    4.3097 H   0  0  0  0  0  0  0  0  0  0  0  0
  -36.7338   20.9827    3.3065 H   0  0  0  0  0  0  0  0  0  0  0  0
  -35.0752   22.1432    4.1181 H   0  0  0  0  0  0  0  0  0  0  0  0
  -35.4239   21.5428    5.8284 H   0  0  0  0  0  0  0  0  0  0  0  0
  -34.0457   19.6874    3.9672 H   0  0  0  0  0  0  0  0  0  0  0  0
  -33.1237   21.1208    4.6280 H   0  0  0  0  0  0  0  0  0  0  0  0
  -34.4638   20.0243    6.8307 H   0  0  0  0  0  0  0  0  0  0  0  0
  -33.8068   18.6123    5.8950 H   0  0  0  0  0  0  0  0  0  0  0  0
  -31.7036   20.3948    5.8517 H   0  0  0  0  0  0  0  0  0  0  0  0
  -32.4278   20.6377    7.5040 H   0  0  0  0  0  0  0  0  0  0  0  0
  1  2  1  0
  2  3  1  0
  3  4  1  0
  4  5  1  0
  5  6  1  0
  6  7  1  0
  7  8  1  0
  8  9  1  0
  9 10  1  0
 10 11  1  0
 11 12  1  0
 12 13  1  0
 13 14  1  0
 14 15  1  0
 15 16  1  0
 16 17  1  0
 17 18  1  0
 18 19  2  0
 18 20  1  0
  1 21  1  0
  1 22  1  0
  1 23  1  0
  2 24  1  0
  2 25  1  0
  3 26  1  0
  3 27  1  0
  4 28  1  0
  4 29  1  0
  5 30  1  0
  5 31  1  0
  6 32  1  0
  6 33  1  0
  7 34  1  0
  7 35  1  0
  8 36  1  0
  8 37  1  0
  9 38  1  0
  9 39  1  0
 10 40  1  0
 10 41  1  0
 11 42  1  0
 11 43  1  0
 12 44  1  0
 12 45  1  0
 13 46  1  0
 13 47  1  0
 14 48  1  0
 14 49  1  0
 15 50  1  0
 15 51  1  0
 16 52  1  0
 16 53  1  0
 17 54  1  0
 17 55  1  0
M  CHG  1  20  -1
M  END
>  <meeko>  (12) 
{"is_sidechain": [false], "free_energy": -5.82, "intermolecular_energy": -11.562, "internal_energy": -2.39}

$$$$
stearate_Nlobe_run03
     RDKit          3D

 55 54  0  0  0  0  0  0  0  0999 V2000
  -31.8410   24.6000    8.7390 C   0  0  0  0  0  0  0  0  0  0  0  0
  -32.0610   24.7690    7.2430 C   0  0  0  0  0  0  0  0  0  0  0  0
  -32.2110   23.4430    6.4940 C   0  0  0  0  0  0  0  0  0  0  0  0
  -31.6680   22.2420    7.2730 C   0  0  0  0  0  0  0  0  0  0  0  0
  -32.1690   20.9240    6.6780 C   0  0  0  0  0  0  0  0  0  0  0  0
  -31.7050   19.6890    7.4570 C   0  0  0  0  0  0  0  0  0  0  0  0
  -32.7710   18.6150    7.6970 C   0  0  0  0  0  0  0  0  0  0  0  0
  -34.1410   19.1260    8.1500 C   0  0  0  0  0  0  0  0  0  0  0  0
  -34.1290   19.7380    9.5500 C   0  0  0  0  0  0  0  0  0  0  0  0
  -35.1100   20.9020    9.7410 C   0  0  0  0  0  0  0  0  0  0  0  0
  -34.5180   22.2960    9.5000 C   0  0  0  0  0  0  0  0  0  0  0  0
  -35.3110   23.1060    8.4700 C   0  0  0  0  0  0  0  0  0  0  0  0
  -36.1640   22.2380    7.5370 C   0  0  0  0  0  0  0  0  0  0  0  0
  -35.5430   21.9040    6.1770 C   0  0  0  0  0  0  0  0  0  0  0  0
  -36.0720   20.6390    5.4940 C   0  0  0  0  0  0  0  0  0  0  0  0
  -37.5380   20.7400    5.0630 C   0  0  0  0  0  0  0  0  0  0  0  0
  -38.4700   19.9730    5.9990 C   0  0  0  0  0  0  0  0  0  0  0  0
  -39.3310   20.8820    6.8320 C   0  0  0  0  0  0  0  0  0  0  0  0
  -39.9150   21.8770    6.4390 O   0  0  0  0  0  0  0  0  0  0  0  0
  -39.4380   20.4830    8.1120 O   0  0  0  0  0  0  0  0  0  0  0  0
  -32.5966   25.1805    9.2886 H   0  0  0  0  0  0  0  0  0  0  0  0
  -31.9308   23.5364    9.0050 H   0  0  0  0  0  0  0  0  0  0  0  0
  -30.8365   24.9609    9.0050 H   0  0  0  0  0  0  0  0  0  0  0  0
  -32.9758   25.3604    7.0903 H   0  0  0  0  0  0  0  0  0  0  0  0
  -31.1683   25.2692    6.8394 H   0  0  0  0  0  0  0  0  0  0  0  0
  -33.2793   23.2746    6.2930 H   0  0  0  0  0  0  0  0  0  0  0  0
  -31.6224   23.5236    5.5682 H   0  0  0  0  0  0  0  0  0  0  0  0
  -30.5687   22.2575    7.2359 H   0  0  0  0  0  0  0  0  0  0  0  0
  -32.0220   22.3119    8.3121 H   0  0  0  0  0  0  0  0  0  0  0  0
  -33.2689   20.9398    6.6725 H   0  0  0  0  0  0  0  0  0  0  0  0
  -31.7490   20.8451    5.6644 H   0  0  0  0  0  0  0  0  0  0  0  0
  -30.8795   19.2263    6.8962 H   0  0  0  0  0  0  0  0  0  0  0  0
  -31.4178   20.0542    8.4541 H   0  0  0  0  0  0  0  0  0  0  0  0
  -32.9111   18.0623    6.7563 H   0  0  0  0  0  0  0  0  0  0  0  0
  -32.3929   17.9986    8.5259 H   0  0  0  0  0  0  0  0  0  0  0  0
  -34.4801   19.8924    7.4375 H   0  0  0  0  0  0  0  0  0  0  0  0
  -34.8166   18.2585    8.1811 H   0  0  0  0  0  0  0  0  0  0  0  0
  -34.3860   18.9494   10.2725 H   0  0  0  0  0  0  0  0  0  0  0  0
  -33.1204   20.1488    9.7045 H   0  0  0  0  0  0  0  0  0  0  0  0
  -35.9468   20.7612    9.0410 H   0  0  0  0  0  0  0  0  0  0  0  0
  -35.4147   20.8764   10.7976 H   0  0  0  0  0  0  0  0  0  0  0  0
  -34.5142   22.8460   10.4526 H   0  0  0  0  0  0  0  0  0  0  0  0
  -33.5008   22.1606    9.1038 H   0  0  0  0  0  0  0  0  0  0  0  0
  -35.9763   23.7974    9.0078 H   0  0  0  0  0  0  0  0  0  0  0  0
  -34.5800   23.6359    7.8417 H   0  0  0  0  0  0  0  0  0  0  0  0
  -36.3706   21.2897    8.0548 H   0  0  0  0  0  0  0  0  0  0  0  0
  -37.0614   22.8342    7.3151 H   0  0  0  0  0  0  0  0  0  0  0  0
  -35.7287   22.7537    5.5036 H   0  0  0  0  0  0  0  0  0  0  0  0
  -34.4778   21.7132    6.3743 H   0  0  0  0  0  0  0  0  0  0  0  0
  -35.4600   20.4446    4.6009 H   0  0  0  0  0  0  0  0  0  0  0  0
  -36.0087   19.8250    6.2311 H   0  0  0  0  0  0  0  0  0  0  0  0
  -37.8337   21.7995    5.0591 H   0  0  0  0  0  0  0  0  0  0  0  0
  -37.6262   20.2954    4.0607 H   0  0  0  0  0  0  0  0  0  0  0  0
  -39.1228   19.3267    5.3939 H   0  0  0  0  0  0  0  0  0  0  0  0
  -37.8424   19.3870    6.6866 H   0  0  0  0  0  0  0  0  0  0  0  0
  1  2  1  0
  2  3  1  0
  3  4  1  0
  4  5  1  0
  5  6  1  0
  6  7  1  0
  7  8  1  0
  8  9  1  0
  9 10  1  0
 10 11  1  0
 11 12  1  0
 12 13  1  0
 13 14  1  0
 14 15  1  0
 15 16  1  0
 16 17  1  0
 17 18  1  0
 18 19  2  0
 18 20  1  0
  1 21  1  0
  1 22  1  0
  1 23  1  0
  2 24  1  0
  2 25  1  0
  3 26  1  0
  3 27  1  0
  4 28  1  0
  4 29  1  0
  5 30  1  0
  5 31  1  0
  6 32  1  0
  6 33  1  0
  7 34  1  0
  7 35  1  0
  8 36  1  0
  8 37  1  0
  9 38  1  0
  9 39  1  0
 10 40  1  0
 10 41  1  0
 11 42  1  0
 11 43  1  0
 12 44  1  0
 12 45  1  0
 13 46  1  0
 13 47  1  0
 14 48  1  0
 14 49  1  0
 15 50  1  0
 15 51  1  0
 16 52  1  0
 16 53  1  0
 17 54  1  0
 17 55  1  0
M  CHG  1  20  -1
M  END
>  <meeko>  (13) 
{"is_sidechain": [false], "free_energy": -5.794, "intermolecular_energy": -11.302, "internal_energy": -2.601}

$$$$
stearate_Nlobe_run03
     RDKit          3D

 55 54  0  0  0  0  0  0  0  0999 V2000
  -36.7720   20.3390    4.6670 C   0  0  0  0  0  0  0  0  0  0  0  0
  -35.5470   21.1580    4.2890 C   0  0  0  0  0  0  0  0  0  0  0  0
  -34.3010   20.8080    5.1060 C   0  0  0  0  0  0  0  0  0  0  0  0
  -33.1120   20.3780    4.2430 C   0  0  0  0  0  0  0  0  0  0  0  0
  -32.4280   19.1370    4.8220 C   0  0  0  0  0  0  0  0  0  0  0  0
  -32.8580   18.8200    6.2580 C   0  0  0  0  0  0  0  0  0  0  0  0
  -31.7440   18.8500    7.3090 C   0  0  0  0  0  0  0  0  0  0  0  0
  -31.0750   20.2110    7.5310 C   0  0  0  0  0  0  0  0  0  0  0  0
  -32.0620   21.3230    7.8800 C   0  0  0  0  0  0  0  0  0  0  0  0
  -31.7760   22.6620    7.1880 C   0  0  0  0  0  0  0  0  0  0  0  0
  -32.1040   23.9070    8.0220 C   0  0  0  0  0  0  0  0  0  0  0  0
  -33.0680   24.8600    7.3090 C   0  0  0  0  0  0  0  0  0  0  0  0
  -34.3580   24.1810    6.8340 C   0  0  0  0  0  0  0  0  0  0  0  0
  -35.3380   23.7590    7.9340 C   0  0  0  0  0  0  0  0  0  0  0  0
  -36.1780   22.5130    7.6380 C   0  0  0  0  0  0  0  0  0  0  0  0
  -35.7610   21.2830    8.4500 C   0  0  0  0  0  0  0  0  0  0  0  0
  -34.9250   21.6560    9.6730 C   0  0  0  0  0  0  0  0  0  0  0  0
  -34.6140   20.4710   10.5450 C   0  0  0  0  0  0  0  0  0  0  0  0
  -34.7360   20.4190   11.7570 O   0  0  0  0  0  0  0  0  0  0  0  0
  -34.1880   19.4000    9.8510 O   0  0  0  0  0  0  0  0  0  0  0  0
  -36.8530   20.2848    5.7627 H   0  0  0  0  0  0  0  0  0  0  0  0
  -37.6736   20.8166    4.2558 H   0  0  0  0  0  0  0  0  0  0  0  0
  -36.6752   19.3233    4.2558 H   0  0  0  0  0  0  0  0  0  0  0  0
  -35.3262   20.9832    3.2257 H   0  0  0  0  0  0  0  0  0  0  0  0
  -35.7854   22.2112    4.4987 H   0  0  0  0  0  0  0  0  0  0  0  0
  -34.0067   21.6924    5.6901 H   0  0  0  0  0  0  0  0  0  0  0  0
  -34.5622   19.9547    5.7491 H   0  0  0  0  0  0  0  0  0  0  0  0
  -33.4692   20.1501    3.2279 H   0  0  0  0  0  0  0  0  0  0  0  0
  -32.3816   21.2003    4.2216 H   0  0  0  0  0  0  0  0  0  0  0  0
  -32.6743   18.2742    4.1857 H   0  0  0  0  0  0  0  0  0  0  0  0
  -31.3475   19.3421    4.8441 H   0  0  0  0  0  0  0  0  0  0  0  0
  -33.6200   19.5566    6.5526 H   0  0  0  0  0  0  0  0  0  0  0  0
  -33.2229   17.7825    6.2387 H   0  0  0  0  0  0  0  0  0  0  0  0
  -32.1750   18.5251    8.2675 H   0  0  0  0  0  0  0  0  0  0  0  0
  -30.9540   18.1868    6.9270 H   0  0  0  0  0  0  0  0  0  0  0  0
  -30.3532   20.1142    8.3554 H   0  0  0  0  0  0  0  0  0  0  0  0
  -30.5904   20.4926    6.5845 H   0  0  0  0  0  0  0  0  0  0  0  0
  -33.0699   20.9929    7.5882 H   0  0  0  0  0  0  0  0  0  0  0  0
  -31.9663   21.5008    8.9613 H   0  0  0  0  0  0  0  0  0  0  0  0
  -30.7060   22.6933    6.9348 H   0  0  0  0  0  0  0  0  0  0  0  0
  -32.4349   22.6997    6.3080 H   0  0  0  0  0  0  0  0  0  0  0  0
  -32.5631   23.5854    8.9685 H   0  0  0  0  0  0  0  0  0  0  0  0
  -31.1630   24.4513    8.1901 H   0  0  0  0  0  0  0  0  0  0  0  0
  -33.3359   25.6691    8.0044 H   0  0  0  0  0  0  0  0  0  0  0  0
  -32.5503   25.2345    6.4136 H   0  0  0  0  0  0  0  0  0  0  0  0
  -34.8816   24.8818    6.1672 H   0  0  0  0  0  0  0  0  0  0  0  0
  -34.0402   23.2481    6.3454 H   0  0  0  0  0  0  0  0  0  0  0  0
  -34.7565   23.5646    8.8473 H   0  0  0  0  0  0  0  0  0  0  0  0
  -36.0558   24.5872    8.0276 H   0  0  0  0  0  0  0  0  0  0  0  0
  -37.2295   22.7404    7.8672 H   0  0  0  0  0  0  0  0  0  0  0  0
  -36.0240   22.2657    6.5773 H   0  0  0  0  0  0  0  0  0  0  0  0
  -36.6665   20.7570    8.7868 H   0  0  0  0  0  0  0  0  0  0  0  0
  -35.1445   20.6431    7.8016 H   0  0  0  0  0  0  0  0  0  0  0  0
  -33.9783   22.0994    9.3306 H   0  0  0  0  0  0  0  0  0  0  0  0
  -35.5122   22.3662   10.2736 H   0  0  0  0  0  0  0  0  0  0  0  0
  1  2  1  0
  2  3  1  0
  3  4  1  0
  4  5  1  0
  5  6  1  0
  6  7  1  0
  7  8  1  0
  8  9  1  0
  9 10  1  0
 10 11  1  0
 11 12  1  0
 12 13  1  0
 13 14  1  0
 14 15  1  0
 15 16  1  0
 16 17  1  0
 17 18  1  0
 18 19  2  0
 18 20  1  0
  1 21  1  0
  1 22  1  0
  1 23  1  0
  2 24  1  0
  2 25  1  0
  3 26  1  0
  3 27  1  0
  4 28  1  0
  4 29  1  0
  5 30  1  0
  5 31  1  0
  6 32  1  0
  6 33  1  0
  7 34  1  0
  7 35  1  0
  8 36  1  0
  8 37  1  0
  9 38  1  0
  9 39  1  0
 10 40  1  0
 10 41  1  0
 11 42  1  0
 11 43  1  0
 12 44  1  0
 12 45  1  0
 13 46  1  0
 13 47  1  0
 14 48  1  0
 14 49  1  0
 15 50  1  0
 15 51  1  0
 16 52  1  0
 16 53  1  0
 17 54  1  0
 17 55  1  0
M  CHG  1  20  -1
M  END
>  <meeko>  (14) 
{"is_sidechain": [false], "free_energy": -5.776, "intermolecular_energy": -11.132, "internal_energy": -2.735}

$$$$
stearate_Nlobe_run03
     RDKit          3D

 55 54  0  0  0  0  0  0  0  0999 V2000
  -33.8890   22.7670   11.8640 C   0  0  0  0  0  0  0  0  0  0  0  0
  -33.7780   22.7240   10.3470 C   0  0  0  0  0  0  0  0  0  0  0  0
  -34.5610   21.5740    9.7090 C   0  0  0  0  0  0  0  0  0  0  0  0
  -35.3860   22.0030    8.4930 C   0  0  0  0  0  0  0  0  0  0  0  0
  -35.2410   23.5030    8.2290 C   0  0  0  0  0  0  0  0  0  0  0  0
  -34.6900   23.8250    6.8350 C   0  0  0  0  0  0  0  0  0  0  0  0
  -33.2800   24.4230    6.8000 C   0  0  0  0  0  0  0  0  0  0  0  0
  -32.1750   23.5610    7.4180 C   0  0  0  0  0  0  0  0  0  0  0  0
  -31.7880   22.3600    6.5570 C   0  0  0  0  0  0  0  0  0  0  0  0
  -31.9970   21.0010    7.2360 C   0  0  0  0  0  0  0  0  0  0  0  0
  -32.7690   19.9700    6.4030 C   0  0  0  0  0  0  0  0  0  0  0  0
  -32.7860   20.3100    4.9090 C   0  0  0  0  0  0  0  0  0  0  0  0
  -34.1280   20.8700    4.4270 C   0  0  0  0  0  0  0  0  0  0  0  0
  -35.3680   20.4030    5.1980 C   0  0  0  0  0  0  0  0  0  0  0  0
  -36.6620   21.1710    4.9110 C   0  0  0  0  0  0  0  0  0  0  0  0
  -37.9260   20.4380    5.3720 C   0  0  0  0  0  0  0  0  0  0  0  0
  -38.1810   20.6130    6.8670 C   0  0  0  0  0  0  0  0  0  0  0  0
  -39.6220   20.9150    7.1780 C   0  0  0  0  0  0  0  0  0  0  0  0
  -40.4440   20.1260    7.6110 O   0  0  0  0  0  0  0  0  0  0  0  0
  -39.9540   22.1990    6.9530 O   0  0  0  0  0  0  0  0  0  0  0  0
  -32.9516   22.4039   12.3107 H   0  0  0  0  0  0  0  0  0  0  0  0
  -34.0734   23.8016   12.1890 H   0  0  0  0  0  0  0  0  0  0  0  0
  -34.7222   22.1266   12.1890 H   0  0  0  0  0  0  0  0  0  0  0  0
  -34.1616   23.6725    9.9430 H   0  0  0  0  0  0  0  0  0  0  0  0
  -32.7167   22.5657   10.1050 H   0  0  0  0  0  0  0  0  0  0  0  0
  -33.8471   20.8000    9.3908 H   0  0  0  0  0  0  0  0  0  0  0  0
  -35.2668   21.2016   10.4660 H   0  0  0  0  0  0  0  0  0  0  0  0
  -35.0385   21.4477    7.6093 H   0  0  0  0  0  0  0  0  0  0  0  0
  -36.4450   21.7852    8.6954 H   0  0  0  0  0  0  0  0  0  0  0  0
  -36.2308   23.9721    8.3297 H   0  0  0  0  0  0  0  0  0  0  0  0
  -34.5195   23.8936    8.9617 H   0  0  0  0  0  0  0  0  0  0  0  0
  -34.6758   22.8915    6.2533 H   0  0  0  0  0  0  0  0  0  0  0  0
  -35.3540   24.5982    6.4213 H   0  0  0  0  0  0  0  0  0  0  0  0
  -33.0168   24.6056    5.7477 H   0  0  0  0  0  0  0  0  0  0  0  0
  -33.3266   25.3344    7.4141 H   0  0  0  0  0  0  0  0  0  0  0  0
  -31.2830   24.1884    7.5620 H   0  0  0  0  0  0  0  0  0  0  0  0
  -32.5645   23.1667    8.3682 H   0  0  0  0  0  0  0  0  0  0  0  0
  -32.3955   22.3837    5.6402 H   0  0  0  0  0  0  0  0  0  0  0  0
  -30.7097   22.4498    6.3589 H   0  0  0  0  0  0  0  0  0  0  0  0
  -31.0075   20.5800    7.4678 H   0  0  0  0  0  0  0  0  0  0  0  0
  -32.6101   21.1952    8.1284 H   0  0  0  0  0  0  0  0  0  0  0  0
  -32.2957   18.9858    6.5346 H   0  0  0  0  0  0  0  0  0  0  0  0
  -33.8109   19.9708    6.7558 H   0  0  0  0  0  0  0  0  0  0  0  0
  -32.0050   21.0595    4.7132 H   0  0  0  0  0  0  0  0  0  0  0  0
  -32.6100   19.3726    4.3609 H   0  0  0  0  0  0  0  0  0  0  0  0
  -34.0803   21.9666    4.4991 H   0  0  0  0  0  0  0  0  0  0  0  0
  -34.2562   20.4909    3.4024 H   0  0  0  0  0  0  0  0  0  0  0  0
  -35.5413   19.3456    4.9492 H   0  0  0  0  0  0  0  0  0  0  0  0
  -35.1440   20.5829    6.2598 H   0  0  0  0  0  0  0  0  0  0  0  0
  -36.6134   22.1400    5.4294 H   0  0  0  0  0  0  0  0  0  0  0  0
  -36.7347   21.2835    3.8192 H   0  0  0  0  0  0  0  0  0  0  0  0
  -38.7884   20.8353    4.8166 H   0  0  0  0  0  0  0  0  0  0  0  0
  -37.7842   19.3648    5.1769 H   0  0  0  0  0  0  0  0  0  0  0  0
  -37.8964   19.6846    7.3838 H   0  0  0  0  0  0  0  0  0  0  0  0
  -37.5805   21.4688    7.2089 H   0  0  0  0  0  0  0  0  0  0  0  0
  1  2  1  0
  2  3  1  0
  3  4  1  0
  4  5  1  0
  5  6  1  0
  6  7  1  0
  7  8  1  0
  8  9  1  0
  9 10  1  0
 10 11  1  0
 11 12  1  0
 12 13  1  0
 13 14  1  0
 14 15  1  0
 15 16  1  0
 16 17  1  0
 17 18  1  0
 18 19  2  0
 18 20  1  0
  1 21  1  0
  1 22  1  0
  1 23  1  0
  2 24  1  0
  2 25  1  0
  3 26  1  0
  3 27  1  0
  4 28  1  0
  4 29  1  0
  5 30  1  0
  5 31  1  0
  6 32  1  0
  6 33  1  0
  7 34  1  0
  7 35  1  0
  8 36  1  0
  8 37  1  0
  9 38  1  0
  9 39  1  0
 10 40  1  0
 10 41  1  0
 11 42  1  0
 11 43  1  0
 12 44  1  0
 12 45  1  0
 13 46  1  0
 13 47  1  0
 14 48  1  0
 14 49  1  0
 15 50  1  0
 15 51  1  0
 16 52  1  0
 16 53  1  0
 17 54  1  0
 17 55  1  0
M  CHG  1  20  -1
M  END
>  <meeko>  (15) 
{"is_sidechain": [false], "free_energy": -5.748, "intermolecular_energy": -11.222, "internal_energy": -2.591}

$$$$
stearate_Nlobe_run03
     RDKit          3D

 55 54  0  0  0  0  0  0  0  0999 V2000
  -35.2740   21.2340    8.8510 C   0  0  0  0  0  0  0  0  0  0  0  0
  -35.0370   22.6860    9.2390 C   0  0  0  0  0  0  0  0  0  0  0  0
  -35.5050   23.6870    8.1800 C   0  0  0  0  0  0  0  0  0  0  0  0
  -34.7160   23.5970    6.8710 C   0  0  0  0  0  0  0  0  0  0  0  0
  -33.6010   24.6450    6.8250 C   0  0  0  0  0  0  0  0  0  0  0  0
  -32.2280   24.0890    7.2150 C   0  0  0  0  0  0  0  0  0  0  0  0
  -31.8690   22.7240    6.6180 C   0  0  0  0  0  0  0  0  0  0  0  0
  -31.7940   21.5620    7.6130 C   0  0  0  0  0  0  0  0  0  0  0  0
  -32.0940   20.2030    6.9840 C   0  0  0  0  0  0  0  0  0  0  0  0
  -32.7470   20.2780    5.5980 C   0  0  0  0  0  0  0  0  0  0  0  0
  -34.2810   20.2450    5.5990 C   0  0  0  0  0  0  0  0  0  0  0  0
  -34.8870   20.8870    4.3480 C   0  0  0  0  0  0  0  0  0  0  0  0
  -36.3960   20.6580    4.2150 C   0  0  0  0  0  0  0  0  0  0  0  0
  -37.2080   20.7610    5.5100 C   0  0  0  0  0  0  0  0  0  0  0  0
  -38.6990   20.4280    5.3930 C   0  0  0  0  0  0  0  0  0  0  0  0
  -39.3560   20.0720    6.7290 C   0  0  0  0  0  0  0  0  0  0  0  0
  -39.0560   21.1050    7.8140 C   0  0  0  0  0  0  0  0  0  0  0  0
  -39.8220   22.3850    7.6230 C   0  0  0  0  0  0  0  0  0  0  0  0
  -41.0340   22.4920    7.5390 O   0  0  0  0  0  0  0  0  0  0  0  0
  -39.0320   23.4720    7.5740 O   0  0  0  0  0  0  0  0  0  0  0  0
  -35.3737   20.6231    9.7603 H   0  0  0  0  0  0  0  0  0  0  0  0
  -36.1962   21.1593    8.2561 H   0  0  0  0  0  0  0  0  0  0  0  0
  -34.4234   20.8699    8.2561 H   0  0  0  0  0  0  0  0  0  0  0  0
  -35.5799   22.8893   10.1738 H   0  0  0  0  0  0  0  0  0  0  0  0
  -33.9505   22.8173    9.3495 H   0  0  0  0  0  0  0  0  0  0  0  0
  -36.5659   23.4944    7.9622 H   0  0  0  0  0  0  0  0  0  0  0  0
  -35.3423   24.6948    8.5898 H   0  0  0  0  0  0  0  0  0  0  0  0
  -34.2703   22.5947    6.7886 H   0  0  0  0  0  0  0  0  0  0  0  0
  -35.4054   23.7842    6.0345 H   0  0  0  0  0  0  0  0  0  0  0  0
  -33.5383   25.0429    5.8014 H   0  0  0  0  0  0  0  0  0  0  0  0
  -33.8566   25.4239    7.5585 H   0  0  0  0  0  0  0  0  0  0  0  0
  -31.4657   24.8116    6.8884 H   0  0  0  0  0  0  0  0  0  0  0  0
  -32.2638   23.9395    8.3042 H   0  0  0  0  0  0  0  0  0  0  0  0
  -32.6299   22.4744    5.8639 H   0  0  0  0  0  0  0  0  0  0  0  0
  -30.8539   22.8338    6.2087 H   0  0  0  0  0  0  0  0  0  0  0  0
  -30.7802   21.5327    8.0388 H   0  0  0  0  0  0  0  0  0  0  0  0
  -32.5625   21.7413    8.3794 H   0  0  0  0  0  0  0  0  0  0  0  0
  -31.1473   19.6510    6.8891 H   0  0  0  0  0  0  0  0  0  0  0  0
  -32.8167   19.7029    7.6455 H   0  0  0  0  0  0  0  0  0  0  0  0
  -32.4266   21.2157    5.1206 H   0  0  0  0  0  0  0  0  0  0  0  0
  -32.4214   19.3775    5.0567 H   0  0  0  0  0  0  0  0  0  0  0  0
  -34.6103   19.1968    5.6512 H   0  0  0  0  0  0  0  0  0  0  0  0
  -34.6251   20.8235    6.4690 H   0  0  0  0  0  0  0  0  0  0  0  0
  -34.7012   21.9705    4.3876 H   0  0  0  0  0  0  0  0  0  0  0  0
  -34.4094   20.4140    3.4773 H   0  0  0  0  0  0  0  0  0  0  0  0
  -36.7891   21.4062    3.5110 H   0  0  0  0  0  0  0  0  0  0  0  0
  -36.5092   19.6176    3.8762 H   0  0  0  0  0  0  0  0  0  0  0  0
  -36.7646   20.0696    6.2417 H   0  0  0  0  0  0  0  0  0  0  0  0
  -37.1616   21.8191    5.8072 H   0  0  0  0  0  0  0  0  0  0  0  0
  -39.2182   21.3019    4.9725 H   0  0  0  0  0  0  0  0  0  0  0  0
  -38.7809   19.5409    4.7477 H   0  0  0  0  0  0  0  0  0  0  0  0
  -40.4450   20.0165    6.5844 H   0  0  0  0  0  0  0  0  0  0  0  0
  -38.9459   19.1064    7.0599 H   0  0  0  0  0  0  0  0  0  0  0  0
  -39.3237   20.6770    8.7913 H   0  0  0  0  0  0  0  0  0  0  0  0
  -37.9845   21.3467    7.7561 H   0  0  0  0  0  0  0  0  0  0  0  0
  1  2  1  0
  2  3  1  0
  3  4  1  0
  4  5  1  0
  5  6  1  0
  6  7  1  0
  7  8  1  0
  8  9  1  0
  9 10  1  0
 10 11  1  0
 11 12  1  0
 12 13  1  0
 13 14  1  0
 14 15  1  0
 15 16  1  0
 16 17  1  0
 17 18  1  0
 18 19  2  0
 18 20  1  0
  1 21  1  0
  1 22  1  0
  1 23  1  0
  2 24  1  0
  2 25  1  0
  3 26  1  0
  3 27  1  0
  4 28  1  0
  4 29  1  0
  5 30  1  0
  5 31  1  0
  6 32  1  0
  6 33  1  0
  7 34  1  0
  7 35  1  0
  8 36  1  0
  8 37  1  0
  9 38  1  0
  9 39  1  0
 10 40  1  0
 10 41  1  0
 11 42  1  0
 11 43  1  0
 12 44  1  0
 12 45  1  0
 13 46  1  0
 13 47  1  0
 14 48  1  0
 14 49  1  0
 15 50  1  0
 15 51  1  0
 16 52  1  0
 16 53  1  0
 17 54  1  0
 17 55  1  0
M  CHG  1  20  -1
M  END
>  <meeko>  (16) 
{"is_sidechain": [false], "free_energy": -5.683, "intermolecular_energy": -11.23, "internal_energy": -2.459}

$$$$
stearate_Nlobe_run03
     RDKit          3D

 55 54  0  0  0  0  0  0  0  0999 V2000
  -39.2160   19.9990    6.3060 C   0  0  0  0  0  0  0  0  0  0  0  0
  -38.6600   20.4680    4.9700 C   0  0  0  0  0  0  0  0  0  0  0  0
  -37.1350   20.5970    4.9540 C   0  0  0  0  0  0  0  0  0  0  0  0
  -36.5290   20.7870    6.3470 C   0  0  0  0  0  0  0  0  0  0  0  0
  -36.5950   22.2530    6.7840 C   0  0  0  0  0  0  0  0  0  0  0  0
  -35.8980   22.5210    8.1220 C   0  0  0  0  0  0  0  0  0  0  0  0
  -35.2880   21.2960    8.8110 C   0  0  0  0  0  0  0  0  0  0  0  0
  -34.3120   21.5920    9.9540 C   0  0  0  0  0  0  0  0  0  0  0  0
  -33.8330   23.0420    9.9840 C   0  0  0  0  0  0  0  0  0  0  0  0
  -32.4530   23.2650    9.3520 C   0  0  0  0  0  0  0  0  0  0  0  0
  -32.3570   24.4730    8.4100 C   0  0  0  0  0  0  0  0  0  0  0  0
  -32.6420   24.1090    6.9500 C   0  0  0  0  0  0  0  0  0  0  0  0
  -32.1090   22.7290    6.5490 C   0  0  0  0  0  0  0  0  0  0  0  0
  -33.1090   21.7980    5.8560 C   0  0  0  0  0  0  0  0  0  0  0  0
  -32.5300   20.8820    4.7740 C   0  0  0  0  0  0  0  0  0  0  0  0
  -32.8470   19.4000    4.9890 C   0  0  0  0  0  0  0  0  0  0  0  0
  -33.0380   19.0580    6.4650 C   0  0  0  0  0  0  0  0  0  0  0  0
  -31.8230   18.4110    7.0720 C   0  0  0  0  0  0  0  0  0  0  0  0
  -30.9930   17.7440    6.4800 O   0  0  0  0  0  0  0  0  0  0  0  0
  -31.6970   18.6540    8.3900 O   0  0  0  0  0  0  0  0  0  0  0  0
  -38.6538   20.4732    7.1239 H   0  0  0  0  0  0  0  0  0  0  0  0
  -40.2772   20.2788    6.3801 H   0  0  0  0  0  0  0  0  0  0  0  0
  -39.1190   18.9058    6.3801 H   0  0  0  0  0  0  0  0  0  0  0  0
  -38.9562   19.7443    4.1964 H   0  0  0  0  0  0  0  0  0  0  0  0
  -39.0712   21.4709    4.7829 H   0  0  0  0  0  0  0  0  0  0  0  0
  -36.7119   19.6835    4.5108 H   0  0  0  0  0  0  0  0  0  0  0  0
  -36.8899   21.4943    4.3668 H   0  0  0  0  0  0  0  0  0  0  0  0
  -37.0874   20.1721    7.0682 H   0  0  0  0  0  0  0  0  0  0  0  0
  -35.4730   20.4810    6.3123 H   0  0  0  0  0  0  0  0  0  0  0  0
  -36.1137   22.8695    6.0105 H   0  0  0  0  0  0  0  0  0  0  0  0
  -37.6576   22.5053    6.9151 H   0  0  0  0  0  0  0  0  0  0  0  0
  -35.0897   23.2453    7.9428 H   0  0  0  0  0  0  0  0  0  0  0  0
  -36.6827   22.8867    8.8006 H   0  0  0  0  0  0  0  0  0  0  0  0
  -36.1124   20.6925    9.2187 H   0  0  0  0  0  0  0  0  0  0  0  0
  -34.6971   20.7818    8.0387 H   0  0  0  0  0  0  0  0  0  0  0  0
  -34.8145   21.3712   10.9073 H   0  0  0  0  0  0  0  0  0  0  0  0
  -33.4253   20.9609    9.7948 H   0  0  0  0  0  0  0  0  0  0  0  0
  -34.5645   23.6576    9.4399 H   0  0  0  0  0  0  0  0  0  0  0  0
  -33.7425   23.3216   11.0440 H   0  0  0  0  0  0  0  0  0  0  0  0
  -31.7250   23.4073   10.1642 H   0  0  0  0  0  0  0  0  0  0  0  0
  -32.2514   22.3774    8.7343 H   0  0  0  0  0  0  0  0  0  0  0  0
  -33.0871   25.2297    8.7328 H   0  0  0  0  0  0  0  0  0  0  0  0
  -31.3262   24.8535    8.4621 H   0  0  0  0  0  0  0  0  0  0  0  0
  -33.7309   24.1204    6.7944 H   0  0  0  0  0  0  0  0  0  0  0  0
  -32.1236   24.8505    6.3244 H   0  0  0  0  0  0  0  0  0  0  0  0
  -31.2613   22.8815    5.8648 H   0  0  0  0  0  0  0  0  0  0  0  0
  -31.8424   22.2288    7.4917 H   0  0  0  0  0  0  0  0  0  0  0  0
  -33.5671   21.1612    6.6271 H   0  0  0  0  0  0  0  0  0  0  0  0
  -33.8209   22.4577    5.3383 H   0  0  0  0  0  0  0  0  0  0  0  0
  -32.9436   21.1882    3.8018 H   0  0  0  0  0  0  0  0  0  0  0  0
  -31.4358   20.9863    4.8159 H   0  0  0  0  0  0  0  0  0  0  0  0
  -33.7712   19.1532    4.4459 H   0  0  0  0  0  0  0  0  0  0  0  0
  -31.9939   18.8150    4.6150 H   0  0  0  0  0  0  0  0  0  0  0  0
  -33.2556   19.9849    7.0159 H   0  0  0  0  0  0  0  0  0  0  0  0
  -33.8678   18.3393    6.5353 H   0  0  0  0  0  0  0  0  0  0  0  0
  1  2  1  0
  2  3  1  0
  3  4  1  0
  4  5  1  0
  5  6  1  0
  6  7  1  0
  7  8  1  0
  8  9  1  0
  9 10  1  0
 10 11  1  0
 11 12  1  0
 12 13  1  0
 13 14  1  0
 14 15  1  0
 15 16  1  0
 16 17  1  0
 17 18  1  0
 18 19  2  0
 18 20  1  0
  1 21  1  0
  1 22  1  0
  1 23  1  0
  2 24  1  0
  2 25  1  0
  3 26  1  0
  3 27  1  0
  4 28  1  0
  4 29  1  0
  5 30  1  0
  5 31  1  0
  6 32  1  0
  6 33  1  0
  7 34  1  0
  7 35  1  0
  8 36  1  0
  8 37  1  0
  9 38  1  0
  9 39  1  0
 10 40  1  0
 10 41  1  0
 11 42  1  0
 11 43  1  0
 12 44  1  0
 12 45  1  0
 13 46  1  0
 13 47  1  0
 14 48  1  0
 14 49  1  0
 15 50  1  0
 15 51  1  0
 16 52  1  0
 16 53  1  0
 17 54  1  0
 17 55  1  0
M  CHG  1  20  -1
M  END
>  <meeko>  (17) 
{"is_sidechain": [false], "free_energy": -5.669, "intermolecular_energy": -11.326, "internal_energy": -2.335}

$$$$
stearate_Nlobe_run03
     RDKit          3D

 55 54  0  0  0  0  0  0  0  0999 V2000
  -31.5610   18.6690    7.4160 C   0  0  0  0  0  0  0  0  0  0  0  0
  -32.9880   18.2700    7.0710 C   0  0  0  0  0  0  0  0  0  0  0  0
  -34.0310   18.8260    8.0430 C   0  0  0  0  0  0  0  0  0  0  0  0
  -33.5780   20.1070    8.7490 C   0  0  0  0  0  0  0  0  0  0  0  0
  -34.4130   20.3700   10.0050 C   0  0  0  0  0  0  0  0  0  0  0  0
  -34.7200   21.8540   10.2310 C   0  0  0  0  0  0  0  0  0  0  0  0
  -34.2270   22.8090    9.1390 C   0  0  0  0  0  0  0  0  0  0  0  0
  -32.8230   23.3860    9.3440 C   0  0  0  0  0  0  0  0  0  0  0  0
  -32.4230   24.4060    8.2790 C   0  0  0  0  0  0  0  0  0  0  0  0
  -32.6550   23.9390    6.8370 C   0  0  0  0  0  0  0  0  0  0  0  0
  -31.8020   22.7420    6.3960 C   0  0  0  0  0  0  0  0  0  0  0  0
  -32.6010   21.7120    5.5920 C   0  0  0  0  0  0  0  0  0  0  0  0
  -34.1170   21.9120    5.6790 C   0  0  0  0  0  0  0  0  0  0  0  0
  -34.9760   20.8430    4.9940 C   0  0  0  0  0  0  0  0  0  0  0  0
  -36.4580   20.8260    5.3830 C   0  0  0  0  0  0  0  0  0  0  0  0
  -36.6980   20.9220    6.8920 C   0  0  0  0  0  0  0  0  0  0  0  0
  -37.9360   21.7490    7.2290 C   0  0  0  0  0  0  0  0  0  0  0  0
  -39.2180   21.0340    6.9020 C   0  0  0  0  0  0  0  0  0  0  0  0
  -39.6520   20.8110    5.7850 O   0  0  0  0  0  0  0  0  0  0  0  0
  -39.8820   20.6120    7.9940 O   0  0  0  0  0  0  0  0  0  0  0  0
  -31.4436   18.7018    8.5092 H   0  0  0  0  0  0  0  0  0  0  0  0
  -30.8620   17.9319    6.9941 H   0  0  0  0  0  0  0  0  0  0  0  0
  -31.3457   19.6618    6.9941 H   0  0  0  0  0  0  0  0  0  0  0  0
  -33.2191   18.6426    6.0622 H   0  0  0  0  0  0  0  0  0  0  0  0
  -33.0406   17.1731    7.1338 H   0  0  0  0  0  0  0  0  0  0  0  0
  -34.9512   19.0437    7.4809 H   0  0  0  0  0  0  0  0  0  0  0  0
  -34.1909   18.0644    8.8204 H   0  0  0  0  0  0  0  0  0  0  0  0
  -32.5209   20.0045    9.0355 H   0  0  0  0  0  0  0  0  0  0  0  0
  -33.7115   20.9523    8.0579 H   0  0  0  0  0  0  0  0  0  0  0  0
  -35.3651   19.8272    9.9109 H   0  0  0  0  0  0  0  0  0  0  0  0
  -33.8219   20.0255   10.8663 H   0  0  0  0  0  0  0  0  0  0  0  0
  -35.8116   21.9650   10.3093 H   0  0  0  0  0  0  0  0  0  0  0  0
  -34.1758   22.1367   11.1442 H   0  0  0  0  0  0  0  0  0  0  0  0
  -34.2313   22.2619    8.1847 H   0  0  0  0  0  0  0  0  0  0  0  0
  -34.9110   23.6701    9.1633 H   0  0  0  0  0  0  0  0  0  0  0  0
  -32.7885   23.8775   10.3275 H   0  0  0  0  0  0  0  0  0  0  0  0
  -32.1145   22.5477    9.2721 H   0  0  0  0  0  0  0  0  0  0  0  0
  -33.0092   25.3223    8.4426 H   0  0  0  0  0  0  0  0  0  0  0  0
  -31.3400   24.5653    8.3874 H   0  0  0  0  0  0  0  0  0  0  0  0
  -33.7139   23.6588    6.7356 H   0  0  0  0  0  0  0  0  0  0  0  0
  -32.3609   24.7796    6.1913 H   0  0  0  0  0  0  0  0  0  0  0  0
  -30.9743   23.1104    5.7721 H   0  0  0  0  0  0  0  0  0  0  0  0
  -31.4349   22.2425    7.3047 H   0  0  0  0  0  0  0  0  0  0  0  0
  -32.3002   21.7848    4.5364 H   0  0  0  0  0  0  0  0  0  0  0  0
  -32.3797   20.7238    6.0215 H   0  0  0  0  0  0  0  0  0  0  0  0
  -34.3930   21.9343    6.7436 H   0  0  0  0  0  0  0  0  0  0  0  0
  -34.3240   22.8487    5.1407 H   0  0  0  0  0  0  0  0  0  0  0  0
  -34.9143   21.0059    3.9079 H   0  0  0  0  0  0  0  0  0  0  0  0
  -34.5696   19.8763    5.3261 H   0  0  0  0  0  0  0  0  0  0  0  0
  -36.9546   21.6788    4.8972 H   0  0  0  0  0  0  0  0  0  0  0  0
  -36.8665   19.8595    5.0528 H   0  0  0  0  0  0  0  0  0  0  0  0
  -36.8300   19.9069    7.2947 H   0  0  0  0  0  0  0  0  0  0  0  0
  -35.8267   21.4214    7.3408 H   0  0  0  0  0  0  0  0  0  0  0  0
  -37.9248   21.9770    8.3051 H   0  0  0  0  0  0  0  0  0  0  0  0
  -37.9007   22.6638    6.6191 H   0  0  0  0  0  0  0  0  0  0  0  0
  1  2  1  0
  2  3  1  0
  3  4  1  0
  4  5  1  0
  5  6  1  0
  6  7  1  0
  7  8  1  0
  8  9  1  0
  9 10  1  0
 10 11  1  0
 11 12  1  0
 12 13  1  0
 13 14  1  0
 14 15  1  0
 15 16  1  0
 16 17  1  0
 17 18  1  0
 18 19  2  0
 18 20  1  0
  1 21  1  0
  1 22  1  0
  1 23  1  0
  2 24  1  0
  2 25  1  0
  3 26  1  0
  3 27  1  0
  4 28  1  0
  4 29  1  0
  5 30  1  0
  5 31  1  0
  6 32  1  0
  6 33  1  0
  7 34  1  0
  7 35  1  0
  8 36  1  0
  8 37  1  0
  9 38  1  0
  9 39  1  0
 10 40  1  0
 10 41  1  0
 11 42  1  0
 11 43  1  0
 12 44  1  0
 12 45  1  0
 13 46  1  0
 13 47  1  0
 14 48  1  0
 14 49  1  0
 15 50  1  0
 15 51  1  0
 16 52  1  0
 16 53  1  0
 17 54  1  0
 17 55  1  0
M  CHG  1  20  -1
M  END
>  <meeko>  (18) 
{"is_sidechain": [false], "free_energy": -5.653, "intermolecular_energy": -11.117, "internal_energy": -2.512}

$$$$
stearate_Nlobe_run03
     RDKit          3D

 55 54  0  0  0  0  0  0  0  0999 V2000
  -33.8960   24.8500    7.0710 C   0  0  0  0  0  0  0  0  0  0  0  0
  -32.4850   25.2880    7.4340 C   0  0  0  0  0  0  0  0  0  0  0  0
  -31.7750   24.3290    8.3930 C   0  0  0  0  0  0  0  0  0  0  0  0
  -32.3130   22.8980    8.3280 C   0  0  0  0  0  0  0  0  0  0  0  0
  -31.4800   22.0370    7.3740 C   0  0  0  0  0  0  0  0  0  0  0  0
  -31.7940   22.2910    5.8960 C   0  0  0  0  0  0  0  0  0  0  0  0
  -33.0840   21.6520    5.3700 C   0  0  0  0  0  0  0  0  0  0  0  0
  -32.9010   20.4190    4.4800 C   0  0  0  0  0  0  0  0  0  0  0  0
  -32.4260   19.1840    5.2420 C   0  0  0  0  0  0  0  0  0  0  0  0
  -33.4340   18.6440    6.2640 C   0  0  0  0  0  0  0  0  0  0  0  0
  -32.9100   18.5400    7.7020 C   0  0  0  0  0  0  0  0  0  0  0  0
  -33.7400   19.3590    8.6950 C   0  0  0  0  0  0  0  0  0  0  0  0
  -34.9390   20.0640    8.0520 C   0  0  0  0  0  0  0  0  0  0  0  0
  -35.4170   21.3440    8.7470 C   0  0  0  0  0  0  0  0  0  0  0  0
  -36.1570   22.3500    7.8590 C   0  0  0  0  0  0  0  0  0  0  0  0
  -37.0490   21.6950    6.8010 C   0  0  0  0  0  0  0  0  0  0  0  0
  -38.5240   21.7170    7.1950 C   0  0  0  0  0  0  0  0  0  0  0  0
  -39.1530   20.3510    7.1670 C   0  0  0  0  0  0  0  0  0  0  0  0
  -38.5960   19.3100    6.8630 O   0  0  0  0  0  0  0  0  0  0  0  0
  -40.4440   20.3540    7.5460 O   0  0  0  0  0  0  0  0  0  0  0  0
  -34.4724   24.6711    7.9907 H   0  0  0  0  0  0  0  0  0  0  0  0
  -34.3842   25.6389    6.4799 H   0  0  0  0  0  0  0  0  0  0  0  0
  -33.8516   23.9233    6.4799 H   0  0  0  0  0  0  0  0  0  0  0  0
  -31.8932   25.3570    6.5093 H   0  0  0  0  0  0  0  0  0  0  0  0
  -32.5695   26.2564    7.9489 H   0  0  0  0  0  0  0  0  0  0  0  0
  -30.7047   24.3112    8.1399 H   0  0  0  0  0  0  0  0  0  0  0  0
  -31.9540   24.6978    9.4137 H   0  0  0  0  0  0  0  0  0  0  0  0
  -32.2780   22.4553    9.3344 H   0  0  0  0  0  0  0  0  0  0  0  0
  -33.3473   22.9309    7.9550 H   0  0  0  0  0  0  0  0  0  0  0  0
  -30.4157   22.2544    7.5470 H   0  0  0  0  0  0  0  0  0  0  0  0
  -31.7283   20.9861    7.5834 H   0  0  0  0  0  0  0  0  0  0  0  0
  -31.8715   23.3784    5.7492 H   0  0  0  0  0  0  0  0  0  0  0  0
  -30.9754   21.8212    5.3311 H   0  0  0  0  0  0  0  0  0  0  0  0
  -33.6919   21.3552    6.2374 H   0  0  0  0  0  0  0  0  0  0  0  0
  -33.5569   22.4136    4.7326 H   0  0  0  0  0  0  0  0  0  0  0  0
  -33.8655   20.1858    4.0053 H   0  0  0  0  0  0  0  0  0  0  0  0
  -32.1222   20.6642    3.7429 H   0  0  0  0  0  0  0  0  0  0  0  0
  -32.2167   18.3885    4.5117 H   0  0  0  0  0  0  0  0  0  0  0  0
  -31.5351   19.4891    5.8106 H   0  0  0  0  0  0  0  0  0  0  0  0
  -34.3075   19.3125    6.2671 H   0  0  0  0  0  0  0  0  0  0  0  0
  -33.6697   17.6169    5.9487 H   0  0  0  0  0  0  0  0  0  0  0  0
  -32.9344   17.4842    8.0098 H   0  0  0  0  0  0  0  0  0  0  0  0
  -31.8868   18.9436    7.7124 H   0  0  0  0  0  0  0  0  0  0  0  0
  -34.1125   18.6829    9.4787 H   0  0  0  0  0  0  0  0  0  0  0  0
  -33.0818   20.1423    9.0990 H   0  0  0  0  0  0  0  0  0  0  0  0
  -34.6625   20.3246    7.0197 H   0  0  0  0  0  0  0  0  0  0  0  0
  -35.7762   19.3546    8.1279 H   0  0  0  0  0  0  0  0  0  0  0  0
  -36.0946   21.0519    9.5628 H   0  0  0  0  0  0  0  0  0  0  0  0
  -34.5051   21.8584    9.0844 H   0  0  0  0  0  0  0  0  0  0  0  0
  -36.7870   22.9830    8.5013 H   0  0  0  0  0  0  0  0  0  0  0  0
  -35.3917   22.9292    7.3215 H   0  0  0  0  0  0  0  0  0  0  0  0
  -36.9281   22.2367    5.8513 H   0  0  0  0  0  0  0  0  0  0  0  0
  -36.7413   20.6433    6.7046 H   0  0  0  0  0  0  0  0  0  0  0  0
  -38.6101   22.1232    8.2136 H   0  0  0  0  0  0  0  0  0  0  0  0
  -39.0544   22.3420    6.4615 H   0  0  0  0  0  0  0  0  0  0  0  0
  1  2  1  0
  2  3  1  0
  3  4  1  0
  4  5  1  0
  5  6  1  0
  6  7  1  0
  7  8  1  0
  8  9  1  0
  9 10  1  0
 10 11  1  0
 11 12  1  0
 12 13  1  0
 13 14  1  0
 14 15  1  0
 15 16  1  0
 16 17  1  0
 17 18  1  0
 18 19  2  0
 18 20  1  0
  1 21  1  0
  1 22  1  0
  1 23  1  0
  2 24  1  0
  2 25  1  0
  3 26  1  0
  3 27  1  0
  4 28  1  0
  4 29  1  0
  5 30  1  0
  5 31  1  0
  6 32  1  0
  6 33  1  0
  7 34  1  0
  7 35  1  0
  8 36  1  0
  8 37  1  0
  9 38  1  0
  9 39  1  0
 10 40  1  0
 10 41  1  0
 11 42  1  0
 11 43  1  0
 12 44  1  0
 12 45  1  0
 13 46  1  0
 13 47  1  0
 14 48  1  0
 14 49  1  0
 15 50  1  0
 15 51  1  0
 16 52  1  0
 16 53  1  0
 17 54  1  0
 17 55  1  0
M  CHG  1  20  -1
M  END
>  <meeko>  (19) 
{"is_sidechain": [false], "free_energy": -5.608, "intermolecular_energy": -11.147, "internal_energy": -2.397}

$$$$
stearate_Nlobe_run03
     RDKit          3D

 55 54  0  0  0  0  0  0  0  0999 V2000
  -34.0440   19.2950    9.9090 C   0  0  0  0  0  0  0  0  0  0  0  0
  -33.7290   19.2820    8.4200 C   0  0  0  0  0  0  0  0  0  0  0  0
  -32.3040   18.8210    8.1010 C   0  0  0  0  0  0  0  0  0  0  0  0
  -32.0410   18.6610    6.6020 C   0  0  0  0  0  0  0  0  0  0  0  0
  -33.1910   19.2380    5.7730 C   0  0  0  0  0  0  0  0  0  0  0  0
  -32.8090   20.5060    5.0020 C   0  0  0  0  0  0  0  0  0  0  0  0
  -33.0680   21.8290    5.7290 C   0  0  0  0  0  0  0  0  0  0  0  0
  -31.8570   22.4530    6.4280 C   0  0  0  0  0  0  0  0  0  0  0  0
  -31.8980   23.9800    6.4690 C   0  0  0  0  0  0  0  0  0  0  0  0
  -32.6020   24.5610    7.7010 C   0  0  0  0  0  0  0  0  0  0  0  0
  -32.3600   23.7970    9.0090 C   0  0  0  0  0  0  0  0  0  0  0  0
  -33.6050   23.0500    9.4980 C   0  0  0  0  0  0  0  0  0  0  0  0
  -34.8570   23.3390    8.6630 C   0  0  0  0  0  0  0  0  0  0  0  0
  -35.7340   22.1290    8.3270 C   0  0  0  0  0  0  0  0  0  0  0  0
  -36.4340   22.1680    6.9650 C   0  0  0  0  0  0  0  0  0  0  0  0
  -36.6930   20.7820    6.3670 C   0  0  0  0  0  0  0  0  0  0  0  0
  -38.0270   20.1960    6.8250 C   0  0  0  0  0  0  0  0  0  0  0  0
  -39.2060   20.8430    6.1530 C   0  0  0  0  0  0  0  0  0  0  0  0
  -39.5220   20.7220    4.9820 O   0  0  0  0  0  0  0  0  0  0  0  0
  -39.9470   21.5930    6.9890 O   0  0  0  0  0  0  0  0  0  0  0  0
  -33.1061   19.2563   10.4825 H   0  0  0  0  0  0  0  0  0  0  0  0
  -34.5897   20.2164   10.1603 H   0  0  0  0  0  0  0  0  0  0  0  0
  -34.6638   18.4217   10.1603 H   0  0  0  0  0  0  0  0  0  0  0  0
  -34.4349   18.6020    7.9207 H   0  0  0  0  0  0  0  0  0  0  0  0
  -33.8221   20.3174    8.0606 H   0  0  0  0  0  0  0  0  0  0  0  0
  -31.5987   19.5639    8.5019 H   0  0  0  0  0  0  0  0  0  0  0  0
  -32.1706   17.8315    8.5627 H   0  0  0  0  0  0  0  0  0  0  0  0
  -31.1116   19.1891    6.3425 H   0  0  0  0  0  0  0  0  0  0  0  0
  -31.9536   17.5879    6.3765 H   0  0  0  0  0  0  0  0  0  0  0  0
  -33.5168   18.4754    5.0503 H   0  0  0  0  0  0  0  0  0  0  0  0
  -33.9912   19.5138    6.4755 H   0  0  0  0  0  0  0  0  0  0  0  0
  -31.7346   20.4512    4.7726 H   0  0  0  0  0  0  0  0  0  0  0  0
  -33.4551   20.5216    4.1119 H   0  0  0  0  0  0  0  0  0  0  0  0
  -33.4411   22.5530    4.9897 H   0  0  0  0  0  0  0  0  0  0  0  0
  -33.7868   21.5952    6.5282 H   0  0  0  0  0  0  0  0  0  0  0  0
  -31.8196   22.0777    7.4613 H   0  0  0  0  0  0  0  0  0  0  0  0
  -30.9663   22.1683    5.8487 H   0  0  0  0  0  0  0  0  0  0  0  0
  -30.8631   24.3526    6.4563 H   0  0  0  0  0  0  0  0  0  0  0  0
  -32.4801   24.3024    5.5931 H   0  0  0  0  0  0  0  0  0  0  0  0
  -32.2498   25.5938    7.8394 H   0  0  0  0  0  0  0  0  0  0  0  0
  -33.6810   24.4896    7.4995 H   0  0  0  0  0  0  0  0  0  0  0  0
  -31.5534   23.0671    8.8458 H   0  0  0  0  0  0  0  0  0  0  0  0
  -32.0921   24.5350    9.7794 H   0  0  0  0  0  0  0  0  0  0  0  0
  -33.4013   21.9698    9.4581 H   0  0  0  0  0  0  0  0  0  0  0  0
  -33.8105   23.3976   10.5212 H   0  0  0  0  0  0  0  0  0  0  0  0
  -35.4750   24.0580    9.2208 H   0  0  0  0  0  0  0  0  0  0  0  0
  -34.4890   23.7158    7.6973 H   0  0  0  0  0  0  0  0  0  0  0  0
  -35.0964   21.2330    8.3528 H   0  0  0  0  0  0  0  0  0  0  0  0
  -36.5396   22.1280    9.0760 H   0  0  0  0  0  0  0  0  0  0  0  0
  -37.3998   22.6805    7.0853 H   0  0  0  0  0  0  0  0  0  0  0  0
  -35.7622   22.6967    6.2729 H   0  0  0  0  0  0  0  0  0  0  0  0
  -36.7006   20.8652    5.2702 H   0  0  0  0  0  0  0  0  0  0  0  0
  -35.8930   20.1105    6.7121 H   0  0  0  0  0  0  0  0  0  0  0  0
  -38.0368   19.1205    6.5941 H   0  0  0  0  0  0  0  0  0  0  0  0
  -38.1177   20.3808    7.9056 H   0  0  0  0  0  0  0  0  0  0  0  0
  1  2  1  0
  2  3  1  0
  3  4  1  0
  4  5  1  0
  5  6  1  0
  6  7  1  0
  7  8  1  0
  8  9  1  0
  9 10  1  0
 10 11  1  0
 11 12  1  0
 12 13  1  0
 13 14  1  0
 14 15  1  0
 15 16  1  0
 16 17  1  0
 17 18  1  0
 18 19  2  0
 18 20  1  0
  1 21  1  0
  1 22  1  0
  1 23  1  0
  2 24  1  0
  2 25  1  0
  3 26  1  0
  3 27  1  0
  4 28  1  0
  4 29  1  0
  5 30  1  0
  5 31  1  0
  6 32  1  0
  6 33  1  0
  7 34  1  0
  7 35  1  0
  8 36  1  0
  8 37  1  0
  9 38  1  0
  9 39  1  0
 10 40  1  0
 10 41  1  0
 11 42  1  0
 11 43  1  0
 12 44  1  0
 12 45  1  0
 13 46  1  0
 13 47  1  0
 14 48  1  0
 14 49  1  0
 15 50  1  0
 15 51  1  0
 16 52  1  0
 16 53  1  0
 17 54  1  0
 17 55  1  0
M  CHG  1  20  -1
M  END
>  <meeko>  (20) 
{"is_sidechain": [false], "free_energy": -5.583, "intermolecular_energy": -10.958, "internal_energy": -2.536}

$$$$
