stearate_Nlobe_run01
     RDKit          3D

 55 54  0  0  0  0  0  0  0  0999 V2000
  -38.7800   20.7030    6.7800 C   0  0  0  0  0  0  0  0  0  0  0  0
  -37.3160   20.8980    7.1430 C   0  0  0  0  0  0  0  0  0  0  0  0
  -36.9260   22.3650    7.3420 C   0  0  0  0  0  0  0  0  0  0  0  0
  -35.5390   22.7040    6.7890 C   0  0  0  0  0  0  0  0  0  0  0  0
  -35.0970   24.1030    7.2230 C   0  0  0  0  0  0  0  0  0  0  0  0
  -33.6670   24.4490    6.7960 C   0  0  0  0  0  0  0  0  0  0  0  0
  -32.8600   25.2890    7.7910 C   0  0  0  0  0  0  0  0  0  0  0  0
  -31.9620   24.5030    8.7510 C   0  0  0  0  0  0  0  0  0  0  0  0
  -32.5030   23.1160    9.0910 C   0  0  0  0  0  0  0  0  0  0  0  0
  -33.3280   23.0580   10.3820 C   0  0  0  0  0  0  0  0  0  0  0  0
  -34.5850   22.1810   10.3120 C   0  0  0  0  0  0  0  0  0  0  0  0
  -34.4620   20.9030   11.1470 C   0  0  0  0  0  0  0  0  0  0  0  0
  -34.3460   19.6300   10.3020 C   0  0  0  0  0  0  0  0  0  0  0  0
  -34.3510   19.8290    8.7830 C   0  0  0  0  0  0  0  0  0  0  0  0
  -33.1990   19.1700    8.0180 C   0  0  0  0  0  0  0  0  0  0  0  0
  -32.5650   20.0770    6.9600 C   0  0  0  0  0  0  0  0  0  0  0  0
  -33.0030   19.7060    5.5440 C   0  0  0  0  0  0  0  0  0  0  0  0
  -33.2290   20.9100    4.6720 C   0  0  0  0  0  0  0  0  0  0  0  0
  -34.1050   21.0370    3.8350 O   0  0  0  0  0  0  0  0  0  0  0  0
  -32.3580   21.9080    4.9120 O   0  0  0  0  0  0  0  0  0  0  0  0
  -39.3783   20.6233    7.6996 H   0  0  0  0  0  0  0  0  0  0  0  0
  -39.1289   21.5626    6.1889 H   0  0  0  0  0  0  0  0  0  0  0  0
  -38.8917   19.7820    6.1889 H   0  0  0  0  0  0  0  0  0  0  0  0
  -37.1136   20.3542    8.0775 H   0  0  0  0  0  0  0  0  0  0  0  0
  -36.7203   20.5164    6.3006 H   0  0  0  0  0  0  0  0  0  0  0  0
  -37.6688   22.9959    6.8320 H   0  0  0  0  0  0  0  0  0  0  0  0
  -36.8985   22.5504    8.4259 H   0  0  0  0  0  0  0  0  0  0  0  0
  -34.8136   21.9664    7.1629 H   0  0  0  0  0  0  0  0  0  0  0  0
  -35.5864   22.6789    5.6903 H   0  0  0  0  0  0  0  0  0  0  0  0
  -35.7819   24.8391    6.7769 H   0  0  0  0  0  0  0  0  0  0  0  0
  -35.1219   24.1249    8.3225 H   0  0  0  0  0  0  0  0  0  0  0  0
  -33.1255   23.5054    6.6334 H   0  0  0  0  0  0  0  0  0  0  0  0
  -33.7661   25.0687    5.8926 H   0  0  0  0  0  0  0  0  0  0  0  0
  -32.2204   25.9734    7.2144 H   0  0  0  0  0  0  0  0  0  0  0  0
  -33.6020   25.7975    8.4241 H   0  0  0  0  0  0  0  0  0  0  0  0
  -30.9721   24.3865    8.2856 H   0  0  0  0  0  0  0  0  0  0  0  0
  -31.9157   25.0723    9.6911 H   0  0  0  0  0  0  0  0  0  0  0  0
  -33.1410   22.7820    8.2595 H   0  0  0  0  0  0  0  0  0  0  0  0
  -31.6286   22.4671    9.2473 H   0  0  0  0  0  0  0  0  0  0  0  0
  -32.6826   22.6654   11.1815 H   0  0  0  0  0  0  0  0  0  0  0  0
  -33.6798   24.0836   10.5672 H   0  0  0  0  0  0  0  0  0  0  0  0
  -35.4412   22.7630   10.6837 H   0  0  0  0  0  0  0  0  0  0  0  0
  -34.7219   21.8802    9.2628 H   0  0  0  0  0  0  0  0  0  0  0  0
  -33.5651   20.9847   11.7786 H   0  0  0  0  0  0  0  0  0  0  0  0
  -35.3836   20.8144   11.7409 H   0  0  0  0  0  0  0  0  0  0  0  0
  -33.4038   19.1310   10.5729 H   0  0  0  0  0  0  0  0  0  0  0  0
  -35.2479   19.0418   10.5268 H   0  0  0  0  0  0  0  0  0  0  0  0
  -35.2936   19.4180    8.3924 H   0  0  0  0  0  0  0  0  0  0  0  0
  -34.2332   20.9111    8.6242 H   0  0  0  0  0  0  0  0  0  0  0  0
  -32.4211   18.8832    8.7409 H   0  0  0  0  0  0  0  0  0  0  0  0
  -33.6194   18.3026    7.4880 H   0  0  0  0  0  0  0  0  0  0  0  0
  -32.8614   21.1170    7.1614 H   0  0  0  0  0  0  0  0  0  0  0  0
  -31.4736   19.9530    7.0192 H   0  0  0  0  0  0  0  0  0  0  0  0
  -32.2216   19.0817    5.0862 H   0  0  0  0  0  0  0  0  0  0  0  0
  -33.9595   19.1684    5.6223 H   0  0  0  0  0  0  0  0  0  0  0  0
  1  2  1  0
  2  3  1  0
  3  4  1  0
  4  5  1  0
  5  6  1  0
  6  7  1  0
  7  8  1  0
  8  9  1  0
  9 10  1  0
 10 11  1  0
 11 12  1  0
 12 13  1  0
 13 14  1  0
 14 15  1  0
 15 16  1  0
 16 17  1  0
 17 18  1  0
 18 19  2  0
 18 20  1  0
  1 21  1  0
  1 22  1  0
  1 23  1  0
  2 24  1  0
  2 25  1  0
  3 26  1  0
  3 27  1  0
  4 28  1  0
  4 29  1  0
  5 30  1  0
  5 31  1  0
  6 32  1  0
  6 33  1  0
  7 34  1  0
  7 35  1  0
  8 36  1  0
  8 37  1  0
  9 38  1  0
  9 39  1  0
 10 40  1  0
 10 41  1  0
 11 42  1  0
 11 43  1  0
 12 44  1  0
 12 45  1  0
 13 46  1  0
 13 47  1  0
 14 48  1  0
 14 49  1  0
 15 50  1  0
 15 51  1  0
 16 52  1  0
 16 53  1  0
 17 54  1  0
 17 55  1  0
M  CHG  1  20  -1
M  END
>  <meeko>  (1) 
{"is_sidechain": [false], "free_energy": -6.445, "intermolecular_energy": -12.473, "internal_energy": -2.243}

$$$$
stearate_Nlobe_run01
     RDKit          3D

 55 54  0  0  0  0  0  0  0  0999 V2000
  -33.1430   24.6430    6.5670 C   0  0  0  0  0  0  0  0  0  0  0  0
  -32.6610   25.4880    7.7360 C   0  0  0  0  0  0  0  0  0  0  0  0
  -32.0210   24.6680    8.8600 C   0  0  0  0  0  0  0  0  0  0  0  0
  -32.5170   23.2210    8.9110 C   0  0  0  0  0  0  0  0  0  0  0  0
  -33.3200   22.9570   10.1870 C   0  0  0  0  0  0  0  0  0  0  0  0
  -34.8150   22.7350    9.9290 C   0  0  0  0  0  0  0  0  0  0  0  0
  -35.1750   22.1760    8.5490 C   0  0  0  0  0  0  0  0  0  0  0  0
  -36.1520   23.0200    7.7230 C   0  0  0  0  0  0  0  0  0  0  0  0
  -37.5120   22.3540    7.5230 C   0  0  0  0  0  0  0  0  0  0  0  0
  -37.4420   20.9270    6.9640 C   0  0  0  0  0  0  0  0  0  0  0  0
  -38.0560   20.7440    5.5700 C   0  0  0  0  0  0  0  0  0  0  0  0
  -37.0080   20.4240    4.5000 C   0  0  0  0  0  0  0  0  0  0  0  0
  -35.7170   21.2370    4.6470 C   0  0  0  0  0  0  0  0  0  0  0  0
  -34.4190   20.4260    4.7350 C   0  0  0  0  0  0  0  0  0  0  0  0
  -33.1400   21.2370    4.9640 C   0  0  0  0  0  0  0  0  0  0  0  0
  -32.4190   20.8920    6.2710 C   0  0  0  0  0  0  0  0  0  0  0  0
  -32.9430   19.6000    6.8950 C   0  0  0  0  0  0  0  0  0  0  0  0
  -31.8880   18.5320    6.9890 C   0  0  0  0  0  0  0  0  0  0  0  0
  -31.3270   18.1630    8.0070 O   0  0  0  0  0  0  0  0  0  0  0  0
  -31.6060   17.9610    5.8040 O   0  0  0  0  0  0  0  0  0  0  0  0
  -33.6542   23.7468    6.9485 H   0  0  0  0  0  0  0  0  0  0  0  0
  -33.8419   25.2305    5.9535 H   0  0  0  0  0  0  0  0  0  0  0  0
  -32.2816   24.3405    5.9535 H   0  0  0  0  0  0  0  0  0  0  0  0
  -31.9169   26.2069    7.3624 H   0  0  0  0  0  0  0  0  0  0  0  0
  -33.5449   25.9855    8.1616 H   0  0  0  0  0  0  0  0  0  0  0  0
  -30.9315   24.6586    8.7086 H   0  0  0  0  0  0  0  0  0  0  0  0
  -32.3030   25.1430    9.8113 H   0  0  0  0  0  0  0  0  0  0  0  0
  -33.1579   23.0302    8.0376 H   0  0  0  0  0  0  0  0  0  0  0  0
  -31.6435   22.5524    8.9040 H   0  0  0  0  0  0  0  0  0  0  0  0
  -32.9132   22.0595   10.6759 H   0  0  0  0  0  0  0  0  0  0  0  0
  -33.2285   23.8519   10.8200 H   0  0  0  0  0  0  0  0  0  0  0  0
  -35.1878   22.0303   10.6869 H   0  0  0  0  0  0  0  0  0  0  0  0
  -35.2792   23.7310    9.9795 H   0  0  0  0  0  0  0  0  0  0  0  0
  -34.2439   22.0756    7.9719 H   0  0  0  0  0  0  0  0  0  0  0  0
  -35.6889   21.2218    8.7373 H   0  0  0  0  0  0  0  0  0  0  0  0
  -36.3063   23.9792    8.2390 H   0  0  0  0  0  0  0  0  0  0  0  0
  -35.7052   23.1504    6.7263 H   0  0  0  0  0  0  0  0  0  0  0  0
  -38.0239   22.3178    8.4960 H   0  0  0  0  0  0  0  0  0  0  0  0
  -38.0508   22.9574    6.7776 H   0  0  0  0  0  0  0  0  0  0  0  0
  -36.3833   20.6330    6.9115 H   0  0  0  0  0  0  0  0  0  0  0  0
  -38.0368   20.3012    7.6456 H   0  0  0  0  0  0  0  0  0  0  0  0
  -38.7812   19.9179    5.6105 H   0  0  0  0  0  0  0  0  0  0  0  0
  -38.5363   21.6935    5.2912 H   0  0  0  0  0  0  0  0  0  0  0  0
  -36.7562   19.3553    4.5677 H   0  0  0  0  0  0  0  0  0  0  0  0
  -37.4478   20.6879    3.5269 H   0  0  0  0  0  0  0  0  0  0  0  0
  -35.6385   21.9045    3.7762 H   0  0  0  0  0  0  0  0  0  0  0  0
  -35.8048   21.7619    5.6097 H   0  0  0  0  0  0  0  0  0  0  0  0
  -34.5213   19.7149    5.5680 H   0  0  0  0  0  0  0  0  0  0  0  0
  -34.2978   19.9488    3.7513 H   0  0  0  0  0  0  0  0  0  0  0  0
  -32.4525   21.0455    4.1269 H   0  0  0  0  0  0  0  0  0  0  0  0
  -33.4366   22.2943    5.0293 H   0  0  0  0  0  0  0  0  0  0  0  0
  -31.3452   20.7749    6.0630 H   0  0  0  0  0  0  0  0  0  0  0  0
  -32.6018   21.7097    6.9837 H   0  0  0  0  0  0  0  0  0  0  0  0
  -33.3104   19.8220    7.9078 H   0  0  0  0  0  0  0  0  0  0  0  0
  -33.7452   19.2188    6.2460 H   0  0  0  0  0  0  0  0  0  0  0  0
  1  2  1  0
  2  3  1  0
  3  4  1  0
  4  5  1  0
  5  6  1  0
  6  7  1  0
  7  8  1  0
  8  9  1  0
  9 10  1  0
 10 11  1  0
 11 12  1  0
 12 13  1  0
 13 14  1  0
 14 15  1  0
 15 16  1  0
 16 17  1  0
 17 18  1  0
 18 19  2  0
 18 20  1  0
  1 21  1  0
  1 22  1  0
  1 23  1  0
  2 24  1  0
  2 25  1  0
  3 26  1  0
  3 27  1  0
  4 28  1  0
  4 29  1  0
  5 30  1  0
  5 31  1  0
  6 32  1  0
  6 33  1  0
  7 34  1  0
  7 35  1  0
  8 36  1  0
  8 37  1  0
  9 38  1  0
  9 39  1  0
 10 40  1  0
 10 41  1  0
 11 42  1  0
 11 43  1  0
 12 44  1  0
 12 45  1  0
 13 46  1  0
 13 47  1  0
 14 48  1  0
 14 49  1  0
 15 50  1  0
 15 51  1  0
 16 52  1  0
 16 53  1  0
 17 54  1  0
 17 55  1  0
M  CHG  1  20  -1
M  END
>  <meeko>  (2) 
{"is_sidechain": [false], "free_energy": -6.331, "intermolecular_energy": -12.098, "internal_energy": -2.399}

$$$$
stearate_Nlobe_run01
     RDKit          3D

 55 54  0  0  0  0  0  0  0  0999 V2000
  -33.8550   22.7250   11.6810 C   0  0  0  0  0  0  0  0  0  0  0  0
  -34.3580   22.4550   10.2710 C   0  0  0  0  0  0  0  0  0  0  0  0
  -34.7240   20.9900   10.0220 C   0  0  0  0  0  0  0  0  0  0  0  0
  -34.9500   20.6650    8.5430 C   0  0  0  0  0  0  0  0  0  0  0  0
  -36.3240   21.1500    8.0740 C   0  0  0  0  0  0  0  0  0  0  0  0
  -36.2500   22.2850    7.0460 C   0  0  0  0  0  0  0  0  0  0  0  0
  -35.8100   23.6470    7.5910 C   0  0  0  0  0  0  0  0  0  0  0  0
  -34.7280   24.3700    6.7830 C   0  0  0  0  0  0  0  0  0  0  0  0
  -33.6160   24.9620    7.6480 C   0  0  0  0  0  0  0  0  0  0  0  0
  -32.2110   24.4490    7.3100 C   0  0  0  0  0  0  0  0  0  0  0  0
  -31.7540   23.2250    8.1150 C   0  0  0  0  0  0  0  0  0  0  0  0
  -31.6990   21.9480    7.2710 C   0  0  0  0  0  0  0  0  0  0  0  0
  -32.1280   22.1600    5.8150 C   0  0  0  0  0  0  0  0  0  0  0  0
  -33.2330   21.2330    5.2980 C   0  0  0  0  0  0  0  0  0  0  0  0
  -32.8050   20.2060    4.2440 C   0  0  0  0  0  0  0  0  0  0  0  0
  -32.3380   18.8740    4.8380 C   0  0  0  0  0  0  0  0  0  0  0  0
  -32.8490   18.6670    6.2620 C   0  0  0  0  0  0  0  0  0  0  0  0
  -31.7550   18.2840    7.2210 C   0  0  0  0  0  0  0  0  0  0  0  0
  -30.6810   17.7910    6.9250 O   0  0  0  0  0  0  0  0  0  0  0  0
  -32.0540   18.5620    8.5030 O   0  0  0  0  0  0  0  0  0  0  0  0
  -34.5807   22.3354   12.4101 H   0  0  0  0  0  0  0  0  0  0  0  0
  -32.8855   22.2261   11.8263 H   0  0  0  0  0  0  0  0  0  0  0  0
  -33.7350   23.8087   11.8263 H   0  0  0  0  0  0  0  0  0  0  0  0
  -35.2522   23.0715   10.0966 H   0  0  0  0  0  0  0  0  0  0  0  0
  -33.5375   22.7045    9.5821 H   0  0  0  0  0  0  0  0  0  0  0  0
  -33.9063   20.3572   10.3975 H   0  0  0  0  0  0  0  0  0  0  0  0
  -35.6716   20.7974   10.5463 H   0  0  0  0  0  0  0  0  0  0  0  0
  -34.1711   21.1593    7.9438 H   0  0  0  0  0  0  0  0  0  0  0  0
  -34.9032   19.5735    8.4148 H   0  0  0  0  0  0  0  0  0  0  0  0
  -36.8568   20.3018    7.6194 H   0  0  0  0  0  0  0  0  0  0  0  0
  -36.8481   21.5448    8.9569 H   0  0  0  0  0  0  0  0  0  0  0  0
  -35.5357   21.9870    6.2643 H   0  0  0  0  0  0  0  0  0  0  0  0
  -37.2779   22.4261    6.6806 H   0  0  0  0  0  0  0  0  0  0  0  0
  -36.6958   24.2982    7.6274 H   0  0  0  0  0  0  0  0  0  0  0  0
  -35.3628   23.4447    8.5754 H   0  0  0  0  0  0  0  0  0  0  0  0
  -34.2786   23.6516    6.0816 H   0  0  0  0  0  0  0  0  0  0  0  0
  -35.2165   25.2084    6.2649 H   0  0  0  0  0  0  0  0  0  0  0  0
  -33.6240   26.0544    7.5188 H   0  0  0  0  0  0  0  0  0  0  0  0
  -33.8236   24.6517    8.6827 H   0  0  0  0  0  0  0  0  0  0  0  0
  -32.1934   24.1813    6.2432 H   0  0  0  0  0  0  0  0  0  0  0  0
  -31.5173   25.2625    7.5689 H   0  0  0  0  0  0  0  0  0  0  0  0
  -30.7499   23.4239    8.5178 H   0  0  0  0  0  0  0  0  0  0  0  0
  -32.4894   23.0616    8.9165 H   0  0  0  0  0  0  0  0  0  0  0  0
  -30.6661   21.5698    7.2783 H   0  0  0  0  0  0  0  0  0  0  0  0
  -32.4072   21.2341    7.7169 H   0  0  0  0  0  0  0  0  0  0  0  0
  -32.4846   23.1959    5.7168 H   0  0  0  0  0  0  0  0  0  0  0  0
  -31.2400   21.9298    5.2080 H   0  0  0  0  0  0  0  0  0  0  0  0
  -33.6417   20.6829    6.1584 H   0  0  0  0  0  0  0  0  0  0  0  0
  -33.9616   21.8878    4.7976 H   0  0  0  0  0  0  0  0  0  0  0  0
  -33.6613   20.0100    3.5819 H   0  0  0  0  0  0  0  0  0  0  0  0
  -31.9481   20.6361    3.7048 H   0  0  0  0  0  0  0  0  0  0  0  0
  -32.7097   18.0543    4.2056 H   0  0  0  0  0  0  0  0  0  0  0  0
  -31.2386   18.8863    4.8721 H   0  0  0  0  0  0  0  0  0  0  0  0
  -33.3104   19.6030    6.6100 H   0  0  0  0  0  0  0  0  0  0  0  0
  -33.5745   17.8405    6.2380 H   0  0  0  0  0  0  0  0  0  0  0  0
  1  2  1  0
  2  3  1  0
  3  4  1  0
  4  5  1  0
  5  6  1  0
  6  7  1  0
  7  8  1  0
  8  9  1  0
  9 10  1  0
 10 11  1  0
 11 12  1  0
 12 13  1  0
 13 14  1  0
 14 15  1  0
 15 16  1  0
 16 17  1  0
 17 18  1  0
 18 19  2  0
 18 20  1  0
  1 21  1  0
  1 22  1  0
  1 23  1  0
  2 24  1  0
  2 25  1  0
  3 26  1  0
  3 27  1  0
  4 28  1  0
  4 29  1  0
  5 30  1  0
  5 31  1  0
  6 32  1  0
  6 33  1  0
  7 34  1  0
  7 35  1  0
  8 36  1  0
  8 37  1  0
  9 38  1  0
  9 39  1  0
 10 40  1  0
 10 41  1  0
 11 42  1  0
 11 43  1  0
 12 44  1  0
 12 45  1  0
 13 46  1  0
 13 47  1  0
 14 48  1  0
 14 49  1  0
 15 50  1  0
 15 51  1  0
 16 52  1  0
 16 53  1  0
 17 54  1  0
 17 55  1  0
M  CHG  1  20  -1
M  END
>  <meeko>  (3) 
{"is_sidechain": [false], "free_energy": -6.278, "intermolecular_energy": -11.871, "internal_energy": -2.522}

$$$$
stearate_Nlobe_run01
     RDKit          3D

 55 54  0  0  0  0  0  0  0  0999 V2000
  -39.6490   22.1740    7.3790 C   0  0  0  0  0  0  0  0  0  0  0  0
  -39.5770   20.7030    7.7580 C   0  0  0  0  0  0  0  0  0  0  0  0
  -38.7900   19.8520    6.7580 C   0  0  0  0  0  0  0  0  0  0  0  0
  -38.8170   20.4110    5.3340 C   0  0  0  0  0  0  0  0  0  0  0  0
  -37.4100   20.4620    4.7330 C   0  0  0  0  0  0  0  0  0  0  0  0
  -36.3070   20.6390    5.7810 C   0  0  0  0  0  0  0  0  0  0  0  0
  -35.8460   22.0790    6.0240 C   0  0  0  0  0  0  0  0  0  0  0  0
  -35.9490   22.5760    7.4700 C   0  0  0  0  0  0  0  0  0  0  0  0
  -35.4110   23.9920    7.6660 C   0  0  0  0  0  0  0  0  0  0  0  0
  -34.1030   24.2810    6.9190 C   0  0  0  0  0  0  0  0  0  0  0  0
  -33.1170   25.1910    7.6620 C   0  0  0  0  0  0  0  0  0  0  0  0
  -31.8860   24.4370    8.1750 C   0  0  0  0  0  0  0  0  0  0  0  0
  -32.1410   22.9450    8.4130 C   0  0  0  0  0  0  0  0  0  0  0  0
  -31.5310   21.9870    7.3840 C   0  0  0  0  0  0  0  0  0  0  0  0
  -32.4980   20.9770    6.7570 C   0  0  0  0  0  0  0  0  0  0  0  0
  -33.2040   20.0840    7.7810 C   0  0  0  0  0  0  0  0  0  0  0  0
  -33.1270   18.6050    7.4090 C   0  0  0  0  0  0  0  0  0  0  0  0
  -31.8330   18.2440    6.7330 C   0  0  0  0  0  0  0  0  0  0  0  0
  -31.6700   18.0700    5.5370 O   0  0  0  0  0  0  0  0  0  0  0  0
  -30.7990   18.1430    7.5880 O   0  0  0  0  0  0  0  0  0  0  0  0
  -39.6790   22.7868    8.2920 H   0  0  0  0  0  0  0  0  0  0  0  0
  -38.7630   22.4435    6.7854 H   0  0  0  0  0  0  0  0  0  0  0  0
  -40.5571   22.3557    6.7854 H   0  0  0  0  0  0  0  0  0  0  0  0
  -39.0927   20.6204    8.7422 H   0  0  0  0  0  0  0  0  0  0  0  0
  -40.6083   20.3205    7.7668 H   0  0  0  0  0  0  0  0  0  0  0  0
  -37.7434   19.7990    7.0924 H   0  0  0  0  0  0  0  0  0  0  0  0
  -39.2664   18.8610    6.7279 H   0  0  0  0  0  0  0  0  0  0  0  0
  -39.4517   19.7669    4.7076 H   0  0  0  0  0  0  0  0  0  0  0  0
  -39.2183   21.4346    5.3690 H   0  0  0  0  0  0  0  0  0  0  0  0
  -37.2282   19.5224    4.1907 H   0  0  0  0  0  0  0  0  0  0  0  0
  -37.3717   21.3388    4.0699 H   0  0  0  0  0  0  0  0  0  0  0  0
  -36.6800   20.2381    6.7350 H   0  0  0  0  0  0  0  0  0  0  0  0
  -35.4296   20.1063    5.3854 H   0  0  0  0  0  0  0  0  0  0  0  0
  -34.7927   22.1530    5.7157 H   0  0  0  0  0  0  0  0  0  0  0  0
  -36.5282   22.7142    5.4399 H   0  0  0  0  0  0  0  0  0  0  0  0
  -37.0075   22.5609    7.7690 H   0  0  0  0  0  0  0  0  0  0  0  0
  -35.3322   21.9066    8.0875 H   0  0  0  0  0  0  0  0  0  0  0  0
  -36.1733   24.7018    7.3125 H   0  0  0  0  0  0  0  0  0  0  0  0
  -35.1907   24.0989    8.7384 H   0  0  0  0  0  0  0  0  0  0  0  0
  -33.6017   23.3211    6.7258 H   0  0  0  0  0  0  0  0  0  0  0  0
  -34.3861   24.8196    6.0026 H   0  0  0  0  0  0  0  0  0  0  0  0
  -32.7834   25.9829    6.9753 H   0  0  0  0  0  0  0  0  0  0  0  0
  -33.6412   25.6040    8.5364 H   0  0  0  0  0  0  0  0  0  0  0  0
  -31.0805   24.5389    7.4329 H   0  0  0  0  0  0  0  0  0  0  0  0
  -31.6160   24.8789    9.1455 H   0  0  0  0  0  0  0  0  0  0  0  0
  -31.7289   22.6862    9.3995 H   0  0  0  0  0  0  0  0  0  0  0  0
  -33.2301   22.8135    8.3317 H   0  0  0  0  0  0  0  0  0  0  0  0
  -31.1022   22.5925    6.5719 H   0  0  0  0  0  0  0  0  0  0  0  0
  -30.7906   21.3888    7.9353 H   0  0  0  0  0  0  0  0  0  0  0  0
  -33.2630   21.5319    6.1941 H   0  0  0  0  0  0  0  0  0  0  0  0
  -31.8997   20.3163    6.1124 H   0  0  0  0  0  0  0  0  0  0  0  0
  -32.7290   20.2273    8.7627 H   0  0  0  0  0  0  0  0  0  0  0  0
  -34.2656   20.3711    7.8034 H   0  0  0  0  0  0  0  0  0  0  0  0
  -33.2241   18.0057    8.3263 H   0  0  0  0  0  0  0  0  0  0  0  0
  -33.9419   18.3975    6.6999 H   0  0  0  0  0  0  0  0  0  0  0  0
  1  2  1  0
  2  3  1  0
  3  4  1  0
  4  5  1  0
  5  6  1  0
  6  7  1  0
  7  8  1  0
  8  9  1  0
  9 10  1  0
 10 11  1  0
 11 12  1  0
 12 13  1  0
 13 14  1  0
 14 15  1  0
 15 16  1  0
 16 17  1  0
 17 18  1  0
 18 19  2  0
 18 20  1  0
  1 21  1  0
  1 22  1  0
  1 23  1  0
  2 24  1  0
  2 25  1  0
  3 26  1  0
  3 27  1  0
  4 28  1  0
  4 29  1  0
  5 30  1  0
  5 31  1  0
  6 32  1  0
  6 33  1  0
  7 34  1  0
  7 35  1  0
  8 36  1  0
  8 37  1  0
  9 38  1  0
  9 39  1  0
 10 40  1  0
 10 41  1  0
 11 42  1  0
 11 43  1  0
 12 44  1  0
 12 45  1  0
 13 46  1  0
 13 47  1  0
 14 48  1  0
 14 49  1  0
 15 50  1  0
 15 51  1  0
 16 52  1  0
 16 53  1  0
 17 54  1  0
 17 55  1  0
M  CHG  1  20  -1
M  END
>  <meeko>  (4) 
{"is_sidechain": [false], "free_energy": -6.24, "intermolecular_energy": -12.238, "internal_energy": -2.081}

$$$$
stearate_Nlobe_run01
     RDKit          3D

 55 54  0  0  0  0  0  0  0  0999 V2000
  -32.4000   25.1420    7.1720 C   0  0  0  0  0  0  0  0  0  0  0  0
  -31.7480   24.5740    8.4230 C   0  0  0  0  0  0  0  0  0  0  0  0
  -32.5290   23.4150    9.0470 C   0  0  0  0  0  0  0  0  0  0  0  0
  -33.9100   23.2080    8.4200 C   0  0  0  0  0  0  0  0  0  0  0  0
  -34.9350   22.7750    9.4710 C   0  0  0  0  0  0  0  0  0  0  0  0
  -34.3420   21.8890   10.5720 C   0  0  0  0  0  0  0  0  0  0  0  0
  -34.7620   20.4160   10.5370 C   0  0  0  0  0  0  0  0  0  0  0  0
  -33.8670   19.4890    9.7090 C   0  0  0  0  0  0  0  0  0  0  0  0
  -34.2900   19.3840    8.2440 C   0  0  0  0  0  0  0  0  0  0  0  0
  -33.1350   19.1230    7.2700 C   0  0  0  0  0  0  0  0  0  0  0  0
  -32.2140   20.3230    7.0160 C   0  0  0  0  0  0  0  0  0  0  0  0
  -32.6120   21.1210    5.7700 C   0  0  0  0  0  0  0  0  0  0  0  0
  -33.4670   20.3210    4.7810 C   0  0  0  0  0  0  0  0  0  0  0  0
  -34.8430   20.9100    4.4540 C   0  0  0  0  0  0  0  0  0  0  0  0
  -35.5780   21.5790    5.6200 C   0  0  0  0  0  0  0  0  0  0  0  0
  -36.7920   20.7880    6.1160 C   0  0  0  0  0  0  0  0  0  0  0  0
  -37.6360   21.5860    7.1060 C   0  0  0  0  0  0  0  0  0  0  0  0
  -39.0810   21.1670    7.1070 C   0  0  0  0  0  0  0  0  0  0  0  0
  -39.7300   20.8280    8.0820 O   0  0  0  0  0  0  0  0  0  0  0  0
  -39.6470   21.2180    5.8880 O   0  0  0  0  0  0  0  0  0  0  0  0
  -33.2005   25.8393    7.4601 H   0  0  0  0  0  0  0  0  0  0  0  0
  -31.6456   25.6760    6.5755 H   0  0  0  0  0  0  0  0  0  0  0  0
  -32.8255   24.3215    6.5755 H   0  0  0  0  0  0  0  0  0  0  0  0
  -30.7428   24.2139    8.1587 H   0  0  0  0  0  0  0  0  0  0  0  0
  -31.7194   25.3827    9.1681 H   0  0  0  0  0  0  0  0  0  0  0  0
  -31.9453   22.4915    8.9185 H   0  0  0  0  0  0  0  0  0  0  0  0
  -32.6864   23.6619   10.1073 H   0  0  0  0  0  0  0  0  0  0  0  0
  -34.2417   24.1518    7.9627 H   0  0  0  0  0  0  0  0  0  0  0  0
  -33.8330   22.4156    7.6609 H   0  0  0  0  0  0  0  0  0  0  0  0
  -35.3568   23.6768    9.9388 H   0  0  0  0  0  0  0  0  0  0  0  0
  -35.6999   22.1789    8.9518 H   0  0  0  0  0  0  0  0  0  0  0  0
  -33.2462   21.9302   10.4855 H   0  0  0  0  0  0  0  0  0  0  0  0
  -34.7297   22.2891   11.5205 H   0  0  0  0  0  0  0  0  0  0  0  0
  -34.7701   20.0423   11.5716 H   0  0  0  0  0  0  0  0  0  0  0  0
  -35.7470   20.3969   10.0477 H   0  0  0  0  0  0  0  0  0  0  0  0
  -32.8370   19.8733    9.7476 H   0  0  0  0  0  0  0  0  0  0  0  0
  -33.9525   18.4823   10.1440 H   0  0  0  0  0  0  0  0  0  0  0  0
  -35.0111   18.5584    8.1521 H   0  0  0  0  0  0  0  0  0  0  0  0
  -34.7186   20.3592    7.9696 H   0  0  0  0  0  0  0  0  0  0  0  0
  -32.5236   18.3046    7.6779 H   0  0  0  0  0  0  0  0  0  0  0  0
  -33.5990   18.8828    6.3020 H   0  0  0  0  0  0  0  0  0  0  0  0
  -32.2564   20.9902    7.8895 H   0  0  0  0  0  0  0  0  0  0  0  0
  -31.1988   19.9333    6.8505 H   0  0  0  0  0  0  0  0  0  0  0  0
  -33.1840   22.0044    6.0900 H   0  0  0  0  0  0  0  0  0  0  0  0
  -31.6824   21.3933    5.2487 H   0  0  0  0  0  0  0  0  0  0  0  0
  -32.9040   20.2381    3.8397 H   0  0  0  0  0  0  0  0  0  0  0  0
  -33.6659   19.3573    5.2726 H   0  0  0  0  0  0  0  0  0  0  0  0
  -34.7082   21.6632    3.6638 H   0  0  0  0  0  0  0  0  0  0  0  0
  -35.4698   20.0561    4.1573 H   0  0  0  0  0  0  0  0  0  0  0  0
  -34.8723   21.6930    6.4561 H   0  0  0  0  0  0  0  0  0  0  0  0
  -35.9520   22.5460    5.2525 H   0  0  0  0  0  0  0  0  0  0  0  0
  -37.4179   20.5211    5.2517 H   0  0  0  0  0  0  0  0  0  0  0  0
  -36.4214   19.8915    6.6346 H   0  0  0  0  0  0  0  0  0  0  0  0
  -37.2263   21.4391    8.1162 H   0  0  0  0  0  0  0  0  0  0  0  0
  -37.5965   22.6420    6.8006 H   0  0  0  0  0  0  0  0  0  0  0  0
  1  2  1  0
  2  3  1  0
  3  4  1  0
  4  5  1  0
  5  6  1  0
  6  7  1  0
  7  8  1  0
  8  9  1  0
  9 10  1  0
 10 11  1  0
 11 12  1  0
 12 13  1  0
 13 14  1  0
 14 15  1  0
 15 16  1  0
 16 17  1  0
 17 18  1  0
 18 19  2  0
 18 20  1  0
  1 21  1  0
  1 22  1  0
  1 23  1  0
  2 24  1  0
  2 25  1  0
  3 26  1  0
  3 27  1  0
  4 28  1  0
  4 29  1  0
  5 30  1  0
  5 31  1  0
  6 32  1  0
  6 33  1  0
  7 34  1  0
  7 35  1  0
  8 36  1  0
  8 37  1  0
  9 38  1  0
  9 39  1  0
 10 40  1  0
 10 41  1  0
 11 42  1  0
 11 43  1  0
 12 44  1  0
 12 45  1  0
 13 46  1  0
 13 47  1  0
 14 48  1  0
 14 49  1  0
 15 50  1  0
 15 51  1  0
 16 52  1  0
 16 53  1  0
 17 54  1  0
 17 55  1  0
M  CHG  1  20  -1
M  END
>  <meeko>  (5) 
{"is_sidechain": [false], "free_energy": -6.236, "intermolecular_energy": -11.699, "internal_energy": -2.612}

$$$$
stearate_Nlobe_run01
     RDKit          3D

 55 54  0  0  0  0  0  0  0  0999 V2000
  -34.3270   21.8380   10.6830 C   0  0  0  0  0  0  0  0  0  0  0  0
  -33.4890   23.0990   10.5360 C   0  0  0  0  0  0  0  0  0  0  0  0
  -32.5810   23.0900    9.3040 C   0  0  0  0  0  0  0  0  0  0  0  0
  -31.9360   24.4480    9.0160 C   0  0  0  0  0  0  0  0  0  0  0  0
  -32.7800   25.2630    8.0330 C   0  0  0  0  0  0  0  0  0  0  0  0
  -33.1310   24.4980    6.7530 C   0  0  0  0  0  0  0  0  0  0  0  0
  -34.6200   24.2040    6.5420 C   0  0  0  0  0  0  0  0  0  0  0  0
  -35.5160   24.3870    7.7720 C   0  0  0  0  0  0  0  0  0  0  0  0
  -36.5770   23.2980    7.9180 C   0  0  0  0  0  0  0  0  0  0  0  0
  -36.1440   21.9190    7.4050 C   0  0  0  0  0  0  0  0  0  0  0  0
  -37.1990   21.1730    6.5780 C   0  0  0  0  0  0  0  0  0  0  0  0
  -36.6550   20.6770    5.2340 C   0  0  0  0  0  0  0  0  0  0  0  0
  -35.4830   21.5110    4.7060 C   0  0  0  0  0  0  0  0  0  0  0  0
  -34.2680   20.7210    4.2080 C   0  0  0  0  0  0  0  0  0  0  0  0
  -32.9520   20.9830    4.9480 C   0  0  0  0  0  0  0  0  0  0  0  0
  -33.0580   20.8170    6.4670 C   0  0  0  0  0  0  0  0  0  0  0  0
  -33.2020   19.3530    6.8790 C   0  0  0  0  0  0  0  0  0  0  0  0
  -31.9160   18.5840    6.7470 C   0  0  0  0  0  0  0  0  0  0  0  0
  -31.0720   18.4410    7.6140 O   0  0  0  0  0  0  0  0  0  0  0  0
  -31.7640   18.0120    5.5390 O   0  0  0  0  0  0  0  0  0  0  0  0
  -34.4735   21.6175   11.7507 H   0  0  0  0  0  0  0  0  0  0  0  0
  -35.3048   21.9894   10.2023 H   0  0  0  0  0  0  0  0  0  0  0  0
  -33.8087   20.9952   10.2023 H   0  0  0  0  0  0  0  0  0  0  0  0
  -34.1680   23.9612   10.4615 H   0  0  0  0  0  0  0  0  0  0  0  0
  -32.8352   23.1570   11.4187 H   0  0  0  0  0  0  0  0  0  0  0  0
  -31.7820   22.3513    9.4648 H   0  0  0  0  0  0  0  0  0  0  0  0
  -33.2105   22.8386    8.4377 H   0  0  0  0  0  0  0  0  0  0  0  0
  -31.8418   25.0078    9.9582 H   0  0  0  0  0  0  0  0  0  0  0  0
  -30.9466   24.2761    8.5671 H   0  0  0  0  0  0  0  0  0  0  0  0
  -33.7156   25.5529    8.5337 H   0  0  0  0  0  0  0  0  0  0  0  0
  -32.1800   26.1357    7.7356 H   0  0  0  0  0  0  0  0  0  0  0  0
  -32.7792   25.0923    5.8968 H   0  0  0  0  0  0  0  0  0  0  0  0
  -32.6419   23.5171    6.8461 H   0  0  0  0  0  0  0  0  0  0  0  0
  -34.9884   24.8760    5.7529 H   0  0  0  0  0  0  0  0  0  0  0  0
  -34.6805   23.1364    6.2840 H   0  0  0  0  0  0  0  0  0  0  0  0
  -34.8811   24.3777    8.6702 H   0  0  0  0  0  0  0  0  0  0  0  0
  -36.0468   25.3424    7.6474 H   0  0  0  0  0  0  0  0  0  0  0  0
  -36.8297   23.2046    8.9845 H   0  0  0  0  0  0  0  0  0  0  0  0
  -37.4326   23.6084    7.3003 H   0  0  0  0  0  0  0  0  0  0  0  0
  -35.2511   22.0538    6.7769 H   0  0  0  0  0  0  0  0  0  0  0  0
  -35.9618   21.3028    8.2978 H   0  0  0  0  0  0  0  0  0  0  0  0
  -37.5512   20.3062    7.1565 H   0  0  0  0  0  0  0  0  0  0  0  0
  -38.0151   21.8794    6.3657 H   0  0  0  0  0  0  0  0  0  0  0  0
  -36.3157   19.6379    5.3574 H   0  0  0  0  0  0  0  0  0  0  0  0
  -37.4711   20.7641    4.5016 H   0  0  0  0  0  0  0  0  0  0  0  0
  -35.8539   22.1211    3.8693 H   0  0  0  0  0  0  0  0  0  0  0  0
  -35.1245   22.0967    5.5653 H   0  0  0  0  0  0  0  0  0  0  0  0
  -34.5004   19.6500    4.3021 H   0  0  0  0  0  0  0  0  0  0  0  0
  -34.0996   21.0537    3.1731 H   0  0  0  0  0  0  0  0  0  0  0  0
  -32.1960   20.2773    4.5732 H   0  0  0  0  0  0  0  0  0  0  0  0
  -32.6780   22.0310    4.7568 H   0  0  0  0  0  0  0  0  0  0  0  0
  -32.1502   21.2283    6.9325 H   0  0  0  0  0  0  0  0  0  0  0  0
  -33.9582   21.3525    6.8032 H   0  0  0  0  0  0  0  0  0  0  0  0
  -33.5298   19.3132    7.9283 H   0  0  0  0  0  0  0  0  0  0  0  0
  -33.9375   18.8889    6.2054 H   0  0  0  0  0  0  0  0  0  0  0  0
  1  2  1  0
  2  3  1  0
  3  4  1  0
  4  5  1  0
  5  6  1  0
  6  7  1  0
  7  8  1  0
  8  9  1  0
  9 10  1  0
 10 11  1  0
 11 12  1  0
 12 13  1  0
 13 14  1  0
 14 15  1  0
 15 16  1  0
 16 17  1  0
 17 18  1  0
 18 19  2  0
 18 20  1  0
  1 21  1  0
  1 22  1  0
  1 23  1  0
  2 24  1  0
  2 25  1  0
  3 26  1  0
  3 27  1  0
  4 28  1  0
  4 29  1  0
  5 30  1  0
  5 31  1  0
  6 32  1  0
  6 33  1  0
  7 34  1  0
  7 35  1  0
  8 36  1  0
  8 37  1  0
  9 38  1  0
  9 39  1  0
 10 40  1  0
 10 41  1  0
 11 42  1  0
 11 43  1  0
 12 44  1  0
 12 45  1  0
 13 46  1  0
 13 47  1  0
 14 48  1  0
 14 49  1  0
 15 50  1  0
 15 51  1  0
 16 52  1  0
 16 53  1  0
 17 54  1  0
 17 55  1  0
M  CHG  1  20  -1
M  END
>  <meeko>  (6) 
{"is_sidechain": [false], "free_energy": -6.195, "intermolecular_energy": -11.625, "internal_energy": -2.608}

$$$$
stearate_Nlobe_run01
     RDKit          3D

 55 54  0  0  0  0  0  0  0  0999 V2000
  -39.6060   22.3030    7.4060 C   0  0  0  0  0  0  0  0  0  0  0  0
  -39.7200   20.8260    7.7530 C   0  0  0  0  0  0  0  0  0  0  0  0
  -38.8090   19.9280    6.9120 C   0  0  0  0  0  0  0  0  0  0  0  0
  -38.6550   20.4050    5.4660 C   0  0  0  0  0  0  0  0  0  0  0  0
  -37.1800   20.5060    5.0710 C   0  0  0  0  0  0  0  0  0  0  0  0
  -36.2530   20.8100    6.2530 C   0  0  0  0  0  0  0  0  0  0  0  0
  -35.6920   22.2350    6.3090 C   0  0  0  0  0  0  0  0  0  0  0  0
  -35.9290   22.9920    7.6190 C   0  0  0  0  0  0  0  0  0  0  0  0
  -35.2110   24.3400    7.6800 C   0  0  0  0  0  0  0  0  0  0  0  0
  -33.9120   24.4020    6.8680 C   0  0  0  0  0  0  0  0  0  0  0  0
  -32.6740   24.8500    7.6560 C   0  0  0  0  0  0  0  0  0  0  0  0
  -32.1840   23.7860    8.6430 C   0  0  0  0  0  0  0  0  0  0  0  0
  -32.1120   22.3800    8.0380 C   0  0  0  0  0  0  0  0  0  0  0  0
  -32.9980   21.3180    8.6990 C   0  0  0  0  0  0  0  0  0  0  0  0
  -33.1050   19.9820    7.9580 C   0  0  0  0  0  0  0  0  0  0  0  0
  -32.1780   19.8760    6.7440 C   0  0  0  0  0  0  0  0  0  0  0  0
  -32.9490   19.6610    5.4440 C   0  0  0  0  0  0  0  0  0  0  0  0
  -32.8560   20.8390    4.5130 C   0  0  0  0  0  0  0  0  0  0  0  0
  -32.4820   21.9610    4.8090 O   0  0  0  0  0  0  0  0  0  0  0  0
  -33.2120   20.5440    3.2500 O   0  0  0  0  0  0  0  0  0  0  0  0
  -39.5603   22.8948    8.3321 H   0  0  0  0  0  0  0  0  0  0  0  0
  -38.6921   22.4719    6.8175 H   0  0  0  0  0  0  0  0  0  0  0  0
  -40.4831   22.6102    6.8175 H   0  0  0  0  0  0  0  0  0  0  0  0
  -39.4547   20.6960    8.8126 H   0  0  0  0  0  0  0  0  0  0  0  0
  -40.7563   20.5235    7.5416 H   0  0  0  0  0  0  0  0  0  0  0  0
  -37.8137   19.9048    7.3797 H   0  0  0  0  0  0  0  0  0  0  0  0
  -39.2749   18.9321    6.8783 H   0  0  0  0  0  0  0  0  0  0  0  0
  -39.1575   19.6908    4.7971 H   0  0  0  0  0  0  0  0  0  0  0  0
  -39.1084   21.4034    5.3783 H   0  0  0  0  0  0  0  0  0  0  0  0
  -36.8725   19.5492    4.6237 H   0  0  0  0  0  0  0  0  0  0  0  0
  -37.0898   21.3436    4.3637 H   0  0  0  0  0  0  0  0  0  0  0  0
  -36.8182   20.6328    7.1799 H   0  0  0  0  0  0  0  0  0  0  0  0
  -35.3820   20.1499    6.1281 H   0  0  0  0  0  0  0  0  0  0  0  0
  -34.6060   22.1772    6.1440 H   0  0  0  0  0  0  0  0  0  0  0  0
  -36.2319   22.8000    5.5348 H   0  0  0  0  0  0  0  0  0  0  0  0
  -37.0093   23.1671    7.7299 H   0  0  0  0  0  0  0  0  0  0  0  0
  -35.5228   22.3708    8.4309 H   0  0  0  0  0  0  0  0  0  0  0  0
  -35.8943   25.1116    7.2957 H   0  0  0  0  0  0  0  0  0  0  0  0
  -34.9321   24.5002    8.7319 H   0  0  0  0  0  0  0  0  0  0  0  0
  -33.7142   23.3982    6.4640 H   0  0  0  0  0  0  0  0  0  0  0  0
  -34.0725   25.1629    6.0900 H   0  0  0  0  0  0  0  0  0  0  0  0
  -31.8643   25.0693    6.9444 H   0  0  0  0  0  0  0  0  0  0  0  0
  -32.9554   25.7393    8.2390 H   0  0  0  0  0  0  0  0  0  0  0  0
  -31.1787   24.0683    8.9890 H   0  0  0  0  0  0  0  0  0  0  0  0
  -32.9124   23.7477    9.4664 H   0  0  0  0  0  0  0  0  0  0  0  0
  -32.4062   22.4531    6.9806 H   0  0  0  0  0  0  0  0  0  0  0  0
  -31.0770   22.0422    8.1949 H   0  0  0  0  0  0  0  0  0  0  0  0
  -32.5919   21.1162    9.7012 H   0  0  0  0  0  0  0  0  0  0  0  0
  -34.0144   21.7386    8.7036 H   0  0  0  0  0  0  0  0  0  0  0  0
  -32.8516   19.1741    8.6602 H   0  0  0  0  0  0  0  0  0  0  0  0
  -34.1362   19.9038    7.5831 H   0  0  0  0  0  0  0  0  0  0  0  0
  -31.5963   20.8059    6.6607 H   0  0  0  0  0  0  0  0  0  0  0  0
  -31.5233   19.0051    6.8952 H   0  0  0  0  0  0  0  0  0  0  0  0
  -32.5398   18.7763    4.9343 H   0  0  0  0  0  0  0  0  0  0  0  0
  -34.0091   19.5260    5.7046 H   0  0  0  0  0  0  0  0  0  0  0  0
  1  2  1  0
  2  3  1  0
  3  4  1  0
  4  5  1  0
  5  6  1  0
  6  7  1  0
  7  8  1  0
  8  9  1  0
  9 10  1  0
 10 11  1  0
 11 12  1  0
 12 13  1  0
 13 14  1  0
 14 15  1  0
 15 16  1  0
 16 17  1  0
 17 18  1  0
 18 19  2  0
 18 20  1  0
  1 21  1  0
  1 22  1  0
  1 23  1  0
  2 24  1  0
  2 25  1  0
  3 26  1  0
  3 27  1  0
  4 28  1  0
  4 29  1  0
  5 30  1  0
  5 31  1  0
  6 32  1  0
  6 33  1  0
  7 34  1  0
  7 35  1  0
  8 36  1  0
  8 37  1  0
  9 38  1  0
  9 39  1  0
 10 40  1  0
 10 41  1  0
 11 42  1  0
 11 43  1  0
 12 44  1  0
 12 45  1  0
 13 46  1  0
 13 47  1  0
 14 48  1  0
 14 49  1  0
 15 50  1  0
 15 51  1  0
 16 52  1  0
 16 53  1  0
 17 54  1  0
 17 55  1  0
M  CHG  1  20  -1
M  END
>  <meeko>  (7) 
{"is_sidechain": [false], "free_energy": -6.137, "intermolecular_energy": -11.603, "internal_energy": -2.517}

$$$$
stearate_Nlobe_run01
     RDKit          3D

 55 54  0  0  0  0  0  0  0  0999 V2000
  -34.6170   21.1140   10.6300 C   0  0  0  0  0  0  0  0  0  0  0  0
  -34.6970   22.4840    9.9730 C   0  0  0  0  0  0  0  0  0  0  0  0
  -35.3800   22.4650    8.6030 C   0  0  0  0  0  0  0  0  0  0  0  0
  -35.5080   23.8530    7.9710 C   0  0  0  0  0  0  0  0  0  0  0  0
  -34.4850   24.0470    6.8490 C   0  0  0  0  0  0  0  0  0  0  0  0
  -33.1890   24.7180    7.3170 C   0  0  0  0  0  0  0  0  0  0  0  0
  -32.1010   23.7720    7.8380 C   0  0  0  0  0  0  0  0  0  0  0  0
  -31.6720   22.6580    6.8780 C   0  0  0  0  0  0  0  0  0  0  0  0
  -31.6720   21.2710    7.5180 C   0  0  0  0  0  0  0  0  0  0  0  0
  -32.8630   20.3900    7.1190 C   0  0  0  0  0  0  0  0  0  0  0  0
  -32.5530   19.3140    6.0710 C   0  0  0  0  0  0  0  0  0  0  0  0
  -32.9640   19.7310    4.6550 C   0  0  0  0  0  0  0  0  0  0  0  0
  -33.9710   20.8860    4.6280 C   0  0  0  0  0  0  0  0  0  0  0  0
  -35.4420   20.4900    4.4680 C   0  0  0  0  0  0  0  0  0  0  0  0
  -36.4430   21.2840    5.3150 C   0  0  0  0  0  0  0  0  0  0  0  0
  -37.7170   20.5030    5.6530 C   0  0  0  0  0  0  0  0  0  0  0  0
  -38.1520   20.7080    7.1020 C   0  0  0  0  0  0  0  0  0  0  0  0
  -39.5790   21.1700    7.2190 C   0  0  0  0  0  0  0  0  0  0  0  0
  -39.9860   22.3010    7.0170 O   0  0  0  0  0  0  0  0  0  0  0  0
  -40.4280   20.1850    7.5600 O   0  0  0  0  0  0  0  0  0  0  0  0
  -34.6238   21.2309   11.7237 H   0  0  0  0  0  0  0  0  0  0  0  0
  -35.4813   20.5080   10.3206 H   0  0  0  0  0  0  0  0  0  0  0  0
  -33.6881   20.6127   10.3206 H   0  0  0  0  0  0  0  0  0  0  0  0
  -35.2635   23.1552   10.6352 H   0  0  0  0  0  0  0  0  0  0  0  0
  -33.6642   22.8280    9.8150 H   0  0  0  0  0  0  0  0  0  0  0  0
  -34.7907   21.8270    7.9279 H   0  0  0  0  0  0  0  0  0  0  0  0
  -36.3995   22.0799    8.7525 H   0  0  0  0  0  0  0  0  0  0  0  0
  -36.5207   23.9666    7.5568 H   0  0  0  0  0  0  0  0  0  0  0  0
  -35.3198   24.6083    8.7483 H   0  0  0  0  0  0  0  0  0  0  0  0
  -34.2356   23.0610    6.4300 H   0  0  0  0  0  0  0  0  0  0  0  0
  -34.9438   24.7118    6.1023 H   0  0  0  0  0  0  0  0  0  0  0  0
  -32.7717   25.2771    6.4665 H   0  0  0  0  0  0  0  0  0  0  0  0
  -33.4707   25.3505    8.1717 H   0  0  0  0  0  0  0  0  0  0  0  0
  -31.2123   24.3762    8.0729 H   0  0  0  0  0  0  0  0  0  0  0  0
  -32.5388   23.2636    8.7097 H   0  0  0  0  0  0  0  0  0  0  0  0
  -32.3652   22.6478    6.0240 H   0  0  0  0  0  0  0  0  0  0  0  0
  -30.6377   22.8740    6.5720 H   0  0  0  0  0  0  0  0  0  0  0  0
  -30.7472   20.7548    7.2209 H   0  0  0  0  0  0  0  0  0  0  0  0
  -31.7458   21.4261    8.6045 H   0  0  0  0  0  0  0  0  0  0  0  0
  -33.2336   19.8872    8.0245 H   0  0  0  0  0  0  0  0  0  0  0  0
  -33.6015   21.0628    6.6586 H   0  0  0  0  0  0  0  0  0  0  0  0
  -31.4710   19.1162    6.0794 H   0  0  0  0  0  0  0  0  0  0  0  0
  -33.1329   18.4172    6.3344 H   0  0  0  0  0  0  0  0  0  0  0  0
  -32.0620   20.0421    4.1077 H   0  0  0  0  0  0  0  0  0  0  0  0
  -33.4539   18.8626    4.1904 H   0  0  0  0  0  0  0  0  0  0  0  0
  -33.8725   21.4407    5.5728 H   0  0  0  0  0  0  0  0  0  0  0  0
  -33.7231   21.4750    3.7327 H   0  0  0  0  0  0  0  0  0  0  0  0
  -35.7142   20.6234    3.4106 H   0  0  0  0  0  0  0  0  0  0  0  0
  -35.5113   19.4503    4.8204 H   0  0  0  0  0  0  0  0  0  0  0  0
  -35.9513   21.5711    6.2562 H   0  0  0  0  0  0  0  0  0  0  0  0
  -36.7486   22.1566    4.7190 H   0  0  0  0  0  0  0  0  0  0  0  0
  -38.5263   20.8409    4.9890 H   0  0  0  0  0  0  0  0  0  0  0  0
  -37.5043   19.4329    5.5125 H   0  0  0  0  0  0  0  0  0  0  0  0
  -38.0454   19.7544    7.6399 H   0  0  0  0  0  0  0  0  0  0  0  0
  -37.5121   21.4917    7.5337 H   0  0  0  0  0  0  0  0  0  0  0  0
  1  2  1  0
  2  3  1  0
  3  4  1  0
  4  5  1  0
  5  6  1  0
  6  7  1  0
  7  8  1  0
  8  9  1  0
  9 10  1  0
 10 11  1  0
 11 12  1  0
 12 13  1  0
 13 14  1  0
 14 15  1  0
 15 16  1  0
 16 17  1  0
 17 18  1  0
 18 19  2  0
 18 20  1  0
  1 21  1  0
  1 22  1  0
  1 23  1  0
  2 24  1  0
  2 25  1  0
  3 26  1  0
  3 27  1  0
  4 28  1  0
  4 29  1  0
  5 30  1  0
  5 31  1  0
  6 32  1  0
  6 33  1  0
  7 34  1  0
  7 35  1  0
  8 36  1  0
  8 37  1  0
  9 38  1  0
  9 39  1  0
 10 40  1  0
 10 41  1  0
 11 42  1  0
 11 43  1  0
 12 44  1  0
 12 45  1  0
 13 46  1  0
 13 47  1  0
 14 48  1  0
 14 49  1  0
 15 50  1  0
 15 51  1  0
 16 52  1  0
 16 53  1  0
 17 54  1  0
 17 55  1  0
M  CHG  1  20  -1
M  END
>  <meeko>  (8) 
{"is_sidechain": [false], "free_energy": -6.13, "intermolecular_energy": -11.689, "internal_energy": -2.418}

$$$$
stearate_Nlobe_run01
     RDKit          3D

 55 54  0  0  0  0  0  0  0  0999 V2000
  -34.2180   19.2600   11.1780 C   0  0  0  0  0  0  0  0  0  0  0  0
  -34.9210   20.5510   10.7870 C   0  0  0  0  0  0  0  0  0  0  0  0
  -34.1620   21.8120   11.2050 C   0  0  0  0  0  0  0  0  0  0  0  0
  -34.0690   22.8600   10.0920 C   0  0  0  0  0  0  0  0  0  0  0  0
  -34.9360   22.4710    8.8920 C   0  0  0  0  0  0  0  0  0  0  0  0
  -35.4370   23.6750    8.0880 C   0  0  0  0  0  0  0  0  0  0  0  0
  -34.6050   24.0430    6.8550 C   0  0  0  0  0  0  0  0  0  0  0  0
  -33.4350   25.0000    7.1030 C   0  0  0  0  0  0  0  0  0  0  0  0
  -32.0900   24.2900    7.2520 C   0  0  0  0  0  0  0  0  0  0  0  0
  -31.9500   23.0170    6.4080 C   0  0  0  0  0  0  0  0  0  0  0  0
  -31.6950   21.7330    7.2070 C   0  0  0  0  0  0  0  0  0  0  0  0
  -32.5890   20.5720    6.7620 C   0  0  0  0  0  0  0  0  0  0  0  0
  -33.4520   20.9000    5.5390 C   0  0  0  0  0  0  0  0  0  0  0  0
  -34.8600   20.2960    5.5280 C   0  0  0  0  0  0  0  0  0  0  0  0
  -35.9970   21.2580    5.1680 C   0  0  0  0  0  0  0  0  0  0  0  0
  -37.3910   20.7040    5.4760 C   0  0  0  0  0  0  0  0  0  0  0  0
  -37.6720   20.6500    6.9760 C   0  0  0  0  0  0  0  0  0  0  0  0
  -39.1090   20.9440    7.3080 C   0  0  0  0  0  0  0  0  0  0  0  0
  -39.7360   20.4920    8.2510 O   0  0  0  0  0  0  0  0  0  0  0  0
  -39.6830   21.8110    6.4540 O   0  0  0  0  0  0  0  0  0  0  0  0
  -34.1760   19.1829   12.2745 H   0  0  0  0  0  0  0  0  0  0  0  0
  -34.7736   18.4022   10.7711 H   0  0  0  0  0  0  0  0  0  0  0  0
  -33.1960   19.2613   10.7711 H   0  0  0  0  0  0  0  0  0  0  0  0
  -35.0417   20.5640    9.6937 H   0  0  0  0  0  0  0  0  0  0  0  0
  -35.8862   20.5655   11.3144 H   0  0  0  0  0  0  0  0  0  0  0  0
  -34.6790   22.2616   12.0656 H   0  0  0  0  0  0  0  0  0  0  0  0
  -33.1344   21.5069   11.4519 H   0  0  0  0  0  0  0  0  0  0  0  0
  -34.4112   23.8297   10.4826 H   0  0  0  0  0  0  0  0  0  0  0  0
  -33.0223   22.9234    9.7597 H   0  0  0  0  0  0  0  0  0  0  0  0
  -34.3410   21.8296    8.2252 H   0  0  0  0  0  0  0  0  0  0  0  0
  -35.8222   21.9520    9.2861 H   0  0  0  0  0  0  0  0  0  0  0  0
  -36.4607   23.4543    7.7514 H   0  0  0  0  0  0  0  0  0  0  0  0
  -35.3668   24.5385    8.7658 H   0  0  0  0  0  0  0  0  0  0  0  0
  -34.1968   23.1127    6.4331 H   0  0  0  0  0  0  0  0  0  0  0  0
  -35.2902   24.5767    6.1800 H   0  0  0  0  0  0  0  0  0  0  0  0
  -33.3690   25.6970    6.2546 H   0  0  0  0  0  0  0  0  0  0  0  0
  -33.6353   25.5178    8.0526 H   0  0  0  0  0  0  0  0  0  0  0  0
  -31.2961   24.9903    6.9531 H   0  0  0  0  0  0  0  0  0  0  0  0
  -32.0132   23.9795    8.3045 H   0  0  0  0  0  0  0  0  0  0  0  0
  -32.8798   22.8834    5.8355 H   0  0  0  0  0  0  0  0  0  0  0  0
  -31.0634   23.1651    5.7740 H   0  0  0  0  0  0  0  0  0  0  0  0
  -30.6436   21.4386    7.0736 H   0  0  0  0  0  0  0  0  0  0  0  0
  -31.9275   21.9460    8.2608 H   0  0  0  0  0  0  0  0  0  0  0  0
  -31.9475   19.7131    6.5154 H   0  0  0  0  0  0  0  0  0  0  0  0
  -33.2753   20.3545    7.5937 H   0  0  0  0  0  0  0  0  0  0  0  0
  -33.5547   21.9938    5.4834 H   0  0  0  0  0  0  0  0  0  0  0  0
  -32.9309   20.4521    4.6800 H   0  0  0  0  0  0  0  0  0  0  0  0
  -34.8689   19.4746    4.7964 H   0  0  0  0  0  0  0  0  0  0  0  0
  -35.0556   19.9770    6.5624 H   0  0  0  0  0  0  0  0  0  0  0  0
  -35.8589   22.1883    5.7385 H   0  0  0  0  0  0  0  0  0  0  0  0
  -35.9484   21.4218    4.0813 H   0  0  0  0  0  0  0  0  0  0  0  0
  -38.1423   21.3497    4.9979 H   0  0  0  0  0  0  0  0  0  0  0  0
  -37.4397   19.6765    5.0862 H   0  0  0  0  0  0  0  0  0  0  0  0
  -37.4245   19.6435    7.3444 H   0  0  0  0  0  0  0  0  0  0  0  0
  -37.0548   21.4226    7.4578 H   0  0  0  0  0  0  0  0  0  0  0  0
  1  2  1  0
  2  3  1  0
  3  4  1  0
  4  5  1  0
  5  6  1  0
  6  7  1  0
  7  8  1  0
  8  9  1  0
  9 10  1  0
 10 11  1  0
 11 12  1  0
 12 13  1  0
 13 14  1  0
 14 15  1  0
 15 16  1  0
 16 17  1  0
 17 18  1  0
 18 19  2  0
 18 20  1  0
  1 21  1  0
  1 22  1  0
  1 23  1  0
  2 24  1  0
  2 25  1  0
  3 26  1  0
  3 27  1  0
  4 28  1  0
  4 29  1  0
  5 30  1  0
  5 31  1  0
  6 32  1  0
  6 33  1  0
  7 34  1  0
  7 35  1  0
  8 36  1  0
  8 37  1  0
  9 38  1  0
  9 39  1  0
 10 40  1  0
 10 41  1  0
 11 42  1  0
 11 43  1  0
 12 44  1  0
 12 45  1  0
 13 46  1  0
 13 47  1  0
 14 48  1  0
 14 49  1  0
 15 50  1  0
 15 51  1  0
 16 52  1  0
 16 53  1  0
 17 54  1  0
 17 55  1  0
M  CHG  1  20  -1
M  END
>  <meeko>  (9) 
{"is_sidechain": [false], "free_energy": -6.123, "intermolecular_energy": -11.511, "internal_energy": -2.582}

$$$$
stearate_Nlobe_run01
     RDKit          3D

 55 54  0  0  0  0  0  0  0  0999 V2000
  -38.6420   20.4760    7.3180 C   0  0  0  0  0  0  0  0  0  0  0  0
  -37.3230   20.5360    6.5630 C   0  0  0  0  0  0  0  0  0  0  0  0
  -36.5810   21.8640    6.7330 C   0  0  0  0  0  0  0  0  0  0  0  0
  -35.1690   21.8500    6.1420 C   0  0  0  0  0  0  0  0  0  0  0  0
  -35.1030   20.9760    4.8870 C   0  0  0  0  0  0  0  0  0  0  0  0
  -33.6750   20.7370    4.3860 C   0  0  0  0  0  0  0  0  0  0  0  0
  -32.6610   20.3040    5.4490 C   0  0  0  0  0  0  0  0  0  0  0  0
  -32.4160   18.7960    5.5610 C   0  0  0  0  0  0  0  0  0  0  0  0
  -32.8970   18.1980    6.8820 C   0  0  0  0  0  0  0  0  0  0  0  0
  -32.8830   19.1780    8.0620 C   0  0  0  0  0  0  0  0  0  0  0  0
  -34.2480   19.4270    8.7150 C   0  0  0  0  0  0  0  0  0  0  0  0
  -34.1690   19.4970   10.2430 C   0  0  0  0  0  0  0  0  0  0  0  0
  -34.5300   20.8740   10.8110 C   0  0  0  0  0  0  0  0  0  0  0  0
  -34.6830   22.0030    9.7880 C   0  0  0  0  0  0  0  0  0  0  0  0
  -33.5810   23.0680    9.7970 C   0  0  0  0  0  0  0  0  0  0  0  0
  -32.4850   22.8270    8.7550 C   0  0  0  0  0  0  0  0  0  0  0  0
  -32.0310   24.1220    8.0840 C   0  0  0  0  0  0  0  0  0  0  0  0
  -32.4610   24.2110    6.6460 C   0  0  0  0  0  0  0  0  0  0  0  0
  -31.8940   23.7040    5.6930 O   0  0  0  0  0  0  0  0  0  0  0  0
  -33.5970   24.9110    6.4750 O   0  0  0  0  0  0  0  0  0  0  0  0
  -38.4457   20.4849    8.4003 H   0  0  0  0  0  0  0  0  0  0  0  0
  -39.2579   21.3471    7.0499 H   0  0  0  0  0  0  0  0  0  0  0  0
  -39.1763   19.5526    7.0499 H   0  0  0  0  0  0  0  0  0  0  0  0
  -36.6752   19.7260    6.9293 H   0  0  0  0  0  0  0  0  0  0  0  0
  -37.5578   20.4316    5.4934 H   0  0  0  0  0  0  0  0  0  0  0  0
  -37.1606   22.6540    6.2331 H   0  0  0  0  0  0  0  0  0  0  0  0
  -36.4796   22.0440    7.8134 H   0  0  0  0  0  0  0  0  0  0  0  0
  -34.8799   22.8782    5.8788 H   0  0  0  0  0  0  0  0  0  0  0  0
  -34.4812   21.4340    6.8929 H   0  0  0  0  0  0  0  0  0  0  0  0
  -35.5597   20.0019    5.1162 H   0  0  0  0  0  0  0  0  0  0  0  0
  -35.6412   21.5106    4.0905 H   0  0  0  0  0  0  0  0  0  0  0  0
  -33.7139   19.9518    3.6166 H   0  0  0  0  0  0  0  0  0  0  0  0
  -33.3215   21.7099    4.0137 H   0  0  0  0  0  0  0  0  0  0  0  0
  -31.7001   20.7856    5.2150 H   0  0  0  0  0  0  0  0  0  0  0  0
  -33.0910   20.6095    6.4143 H   0  0  0  0  0  0  0  0  0  0  0  0
  -32.9466   18.2948    4.7380 H   0  0  0  0  0  0  0  0  0  0  0  0
  -31.3282   18.6399    5.5117 H   0  0  0  0  0  0  0  0  0  0  0  0
  -33.9282   17.8410    6.7431 H   0  0  0  0  0  0  0  0  0  0  0  0
  -32.1948   17.3902    7.1357 H   0  0  0  0  0  0  0  0  0  0  0  0
  -32.2054   18.7771    8.8303 H   0  0  0  0  0  0  0  0  0  0  0  0
  -32.5570   20.1459    7.6534 H   0  0  0  0  0  0  0  0  0  0  0  0
  -34.6490   20.3800    8.3394 H   0  0  0  0  0  0  0  0  0  0  0  0
  -34.9000   18.5801    8.4547 H   0  0  0  0  0  0  0  0  0  0  0  0
  -34.8639   18.7544   10.6620 H   0  0  0  0  0  0  0  0  0  0  0  0
  -33.1245   19.2951   10.5227 H   0  0  0  0  0  0  0  0  0  0  0  0
  -35.4841   20.7763   11.3496 H   0  0  0  0  0  0  0  0  0  0  0  0
  -33.6812   21.1639   11.4478 H   0  0  0  0  0  0  0  0  0  0  0  0
  -34.7052   21.5494    8.7861 H   0  0  0  0  0  0  0  0  0  0  0  0
  -35.6087   22.5300   10.0624 H   0  0  0  0  0  0  0  0  0  0  0  0
  -34.0418   24.0465    9.5967 H   0  0  0  0  0  0  0  0  0  0  0  0
  -33.1003   23.0256   10.7855 H   0  0  0  0  0  0  0  0  0  0  0  0
  -31.6199   22.3634    9.2517 H   0  0  0  0  0  0  0  0  0  0  0  0
  -32.8990   22.1703    7.9756 H   0  0  0  0  0  0  0  0  0  0  0  0
  -32.4608   24.9726    8.6333 H   0  0  0  0  0  0  0  0  0  0  0  0
  -30.9313   24.1393    8.1041 H   0  0  0  0  0  0  0  0  0  0  0  0
  1  2  1  0
  2  3  1  0
  3  4  1  0
  4  5  1  0
  5  6  1  0
  6  7  1  0
  7  8  1  0
  8  9  1  0
  9 10  1  0
 10 11  1  0
 11 12  1  0
 12 13  1  0
 13 14  1  0
 14 15  1  0
 15 16  1  0
 16 17  1  0
 17 18  1  0
 18 19  2  0
 18 20  1  0
  1 21  1  0
  1 22  1  0
  1 23  1  0
  2 24  1  0
  2 25  1  0
  3 26  1  0
  3 27  1  0
  4 28  1  0
  4 29  1  0
  5 30  1  0
  5 31  1  0
  6 32  1  0
  6 33  1  0
  7 34  1  0
  7 35  1  0
  8 36  1  0
  8 37  1  0
  9 38  1  0
  9 39  1  0
 10 40  1  0
 10 41  1  0
 11 42  1  0
 11 43  1  0
 12 44  1  0
 12 45  1  0
 13 46  1  0
 13 47  1  0
 14 48  1  0
 14 49  1  0
 15 50  1  0
 15 51  1  0
 16 52  1  0
 16 53  1  0
 17 54  1  0
 17 55  1  0
M  CHG  1  20  -1
M  END
>  <meeko>  (10) 
{"is_sidechain": [false], "free_energy": -6.123, "intermolecular_energy": -11.583, "internal_energy": -2.51}

$$$$
stearate_Nlobe_run01
     RDKit          3D

 55 54  0  0  0  0  0  0  0  0999 V2000
  -34.0390   19.4440    9.6330 C   0  0  0  0  0  0  0  0  0  0  0  0
  -33.5550   19.0380    8.2480 C   0  0  0  0  0  0  0  0  0  0  0  0
  -32.0610   18.7090    8.1950 C   0  0  0  0  0  0  0  0  0  0  0  0
  -31.5870   18.2700    6.8070 C   0  0  0  0  0  0  0  0  0  0  0  0
  -32.7090   18.3960    5.7730 C   0  0  0  0  0  0  0  0  0  0  0  0
  -32.2770   19.1180    4.4930 C   0  0  0  0  0  0  0  0  0  0  0  0
  -33.0320   20.4130    4.1730 C   0  0  0  0  0  0  0  0  0  0  0  0
  -33.2960   21.3410    5.3630 C   0  0  0  0  0  0  0  0  0  0  0  0
  -32.0890   22.1950    5.7480 C   0  0  0  0  0  0  0  0  0  0  0  0
  -31.7580   22.1840    7.2450 C   0  0  0  0  0  0  0  0  0  0  0  0
  -32.1160   23.4710    7.9990 C   0  0  0  0  0  0  0  0  0  0  0  0
  -33.5320   23.4410    8.5830 C   0  0  0  0  0  0  0  0  0  0  0  0
  -34.5780   24.1050    7.6810 C   0  0  0  0  0  0  0  0  0  0  0  0
  -35.9330   23.3940    7.5890 C   0  0  0  0  0  0  0  0  0  0  0  0
  -35.9090   21.8780    7.8100 C   0  0  0  0  0  0  0  0  0  0  0  0
  -36.7840   21.1000    6.8230 C   0  0  0  0  0  0  0  0  0  0  0  0
  -38.1590   20.7750    7.4020 C   0  0  0  0  0  0  0  0  0  0  0  0
  -39.2800   21.1100    6.4570 C   0  0  0  0  0  0  0  0  0  0  0  0
  -39.5870   20.4840    5.4570 O   0  0  0  0  0  0  0  0  0  0  0  0
  -39.9760   22.2000    6.8260 O   0  0  0  0  0  0  0  0  0  0  0  0
  -33.4327   18.9354   10.3970 H   0  0  0  0  0  0  0  0  0  0  0  0
  -33.9398   20.5331    9.7514 H   0  0  0  0  0  0  0  0  0  0  0  0
  -35.0942   19.1569    9.7514 H   0  0  0  0  0  0  0  0  0  0  0  0
  -34.1188   18.1489    7.9290 H   0  0  0  0  0  0  0  0  0  0  0  0
  -33.7205   19.8981    7.5826 H   0  0  0  0  0  0  0  0  0  0  0  0
  -31.4954   19.6051    8.4899 H   0  0  0  0  0  0  0  0  0  0  0  0
  -31.8883   17.8660    8.8802 H   0  0  0  0  0  0  0  0  0  0  0  0
  -30.7425   18.9041    6.4991 H   0  0  0  0  0  0  0  0  0  0  0  0
  -31.2804   17.2150    6.8613 H   0  0  0  0  0  0  0  0  0  0  0  0
  -33.0515   17.3856    5.5050 H   0  0  0  0  0  0  0  0  0  0  0  0
  -33.5079   18.9972    6.2316 H   0  0  0  0  0  0  0  0  0  0  0  0
  -31.2091   19.3641    4.5878 H   0  0  0  0  0  0  0  0  0  0  0  0
  -32.5041   18.4269    3.6679 H   0  0  0  0  0  0  0  0  0  0  0  0
  -32.4427   20.9732    3.4321 H   0  0  0  0  0  0  0  0  0  0  0  0
  -34.0228   20.1003    3.8118 H   0  0  0  0  0  0  0  0  0  0  0  0
  -34.1287   22.0114    5.1039 H   0  0  0  0  0  0  0  0  0  0  0  0
  -33.5293   20.7015    6.2271 H   0  0  0  0  0  0  0  0  0  0  0  0
  -31.2127   21.8198    5.1990 H   0  0  0  0  0  0  0  0  0  0  0  0
  -32.3437   23.2336    5.4901 H   0  0  0  0  0  0  0  0  0  0  0  0
  -32.3080   21.3524    7.7097 H   0  0  0  0  0  0  0  0  0  0  0  0
  -30.6653   22.0802    7.3168 H   0  0  0  0  0  0  0  0  0  0  0  0
  -31.3990   23.6075    8.8219 H   0  0  0  0  0  0  0  0  0  0  0  0
  -32.0719   24.3009    7.2784 H   0  0  0  0  0  0  0  0  0  0  0  0
  -33.8223   22.3916    8.7391 H   0  0  0  0  0  0  0  0  0  0  0  0
  -33.5068   24.0105    9.5237 H   0  0  0  0  0  0  0  0  0  0  0  0
  -34.7561   25.1210    8.0632 H   0  0  0  0  0  0  0  0  0  0  0  0
  -34.1568   24.0742    6.6653 H   0  0  0  0  0  0  0  0  0  0  0  0
  -36.5972   23.8347    8.3471 H   0  0  0  0  0  0  0  0  0  0  0  0
  -36.2757   23.5388    6.5538 H   0  0  0  0  0  0  0  0  0  0  0  0
  -34.8715   21.5279    7.7056 H   0  0  0  0  0  0  0  0  0  0  0  0
  -36.3143   21.6924    8.8156 H   0  0  0  0  0  0  0  0  0  0  0  0
  -36.9166   21.7052    5.9141 H   0  0  0  0  0  0  0  0  0  0  0  0
  -36.2781   20.1488    6.6009 H   0  0  0  0  0  0  0  0  0  0  0  0
  -38.1999   19.6996    7.6295 H   0  0  0  0  0  0  0  0  0  0  0  0
  -38.2922   21.3871    8.3062 H   0  0  0  0  0  0  0  0  0  0  0  0
  1  2  1  0
  2  3  1  0
  3  4  1  0
  4  5  1  0
  5  6  1  0
  6  7  1  0
  7  8  1  0
  8  9  1  0
  9 10  1  0
 10 11  1  0
 11 12  1  0
 12 13  1  0
 13 14  1  0
 14 15  1  0
 15 16  1  0
 16 17  1  0
 17 18  1  0
 18 19  2  0
 18 20  1  0
  1 21  1  0
  1 22  1  0
  1 23  1  0
  2 24  1  0
  2 25  1  0
  3 26  1  0
  3 27  1  0
  4 28  1  0
  4 29  1  0
  5 30  1  0
  5 31  1  0
  6 32  1  0
  6 33  1  0
  7 34  1  0
  7 35  1  0
  8 36  1  0
  8 37  1  0
  9 38  1  0
  9 39  1  0
 10 40  1  0
 10 41  1  0
 11 42  1  0
 11 43  1  0
 12 44  1  0
 12 45  1  0
 13 46  1  0
 13 47  1  0
 14 48  1  0
 14 49  1  0
 15 50  1  0
 15 51  1  0
 16 52  1  0
 16 53  1  0
 17 54  1  0
 17 55  1  0
M  CHG  1  20  -1
M  END
>  <meeko>  (11) 
{"is_sidechain": [false], "free_energy": -6.068, "intermolecular_energy": -11.42, "internal_energy": -2.566}

$$$$
stearate_Nlobe_run01
     RDKit          3D

 55 54  0  0  0  0  0  0  0  0999 V2000
  -38.9640   21.7420    7.2040 C   0  0  0  0  0  0  0  0  0  0  0  0
  -37.8430   20.9090    6.6000 C   0  0  0  0  0  0  0  0  0  0  0  0
  -38.1680   20.3640    5.2080 C   0  0  0  0  0  0  0  0  0  0  0  0
  -37.0220   20.5330    4.2080 C   0  0  0  0  0  0  0  0  0  0  0  0
  -35.8400   21.2720    4.8410 C   0  0  0  0  0  0  0  0  0  0  0  0
  -34.5610   20.4300    4.9070 C   0  0  0  0  0  0  0  0  0  0  0  0
  -33.2510   21.1930    4.6880 C   0  0  0  0  0  0  0  0  0  0  0  0
  -32.4300   21.4800    5.9490 C   0  0  0  0  0  0  0  0  0  0  0  0
  -32.0560   22.9530    6.1090 C   0  0  0  0  0  0  0  0  0  0  0  0
  -31.8070   23.3890    7.5580 C   0  0  0  0  0  0  0  0  0  0  0  0
  -32.9180   24.2450    8.1790 C   0  0  0  0  0  0  0  0  0  0  0  0
  -34.1610   24.3390    7.2880 C   0  0  0  0  0  0  0  0  0  0  0  0
  -35.2880   23.3920    7.7110 C   0  0  0  0  0  0  0  0  0  0  0  0
  -35.0760   22.6410    9.0300 C   0  0  0  0  0  0  0  0  0  0  0  0
  -35.2170   21.1170    8.9620 C   0  0  0  0  0  0  0  0  0  0  0  0
  -33.8810   20.3820    8.8250 C   0  0  0  0  0  0  0  0  0  0  0  0
  -34.0570   18.9550    8.3110 C   0  0  0  0  0  0  0  0  0  0  0  0
  -32.8320   18.4350    7.6100 C   0  0  0  0  0  0  0  0  0  0  0  0
  -32.7970   17.9370    6.4980 O   0  0  0  0  0  0  0  0  0  0  0  0
  -31.7060   18.5880    8.3300 O   0  0  0  0  0  0  0  0  0  0  0  0
  -38.9037   21.6972    8.3014 H   0  0  0  0  0  0  0  0  0  0  0  0
  -38.8637   22.7864    6.8736 H   0  0  0  0  0  0  0  0  0  0  0  0
  -39.9350   21.3446    6.8736 H   0  0  0  0  0  0  0  0  0  0  0  0
  -36.9433   21.5376    6.5262 H   0  0  0  0  0  0  0  0  0  0  0  0
  -37.6937   20.0416    7.2597 H   0  0  0  0  0  0  0  0  0  0  0  0
  -38.3975   19.2920    5.2978 H   0  0  0  0  0  0  0  0  0  0  0  0
  -39.0225   20.9406    4.8241 H   0  0  0  0  0  0  0  0  0  0  0  0
  -36.6872   19.5397    3.8745 H   0  0  0  0  0  0  0  0  0  0  0  0
  -37.3874   21.1251    3.3560 H   0  0  0  0  0  0  0  0  0  0  0  0
  -35.6335   22.1739    4.2460 H   0  0  0  0  0  0  0  0  0  0  0  0
  -36.1241   21.5130    5.8760 H   0  0  0  0  0  0  0  0  0  0  0  0
  -34.5165   19.9605    5.9008 H   0  0  0  0  0  0  0  0  0  0  0  0
  -34.6319   19.7118    4.0768 H   0  0  0  0  0  0  0  0  0  0  0  0
  -32.6249   20.6002    4.0049 H   0  0  0  0  0  0  0  0  0  0  0  0
  -33.5402   22.1763    4.2886 H   0  0  0  0  0  0  0  0  0  0  0  0
  -33.0191   21.1729    6.8257 H   0  0  0  0  0  0  0  0  0  0  0  0
  -31.4905   20.9148    5.8598 H   0  0  0  0  0  0  0  0  0  0  0  0
  -31.1390   23.1400    5.5309 H   0  0  0  0  0  0  0  0  0  0  0  0
  -32.9161   23.5365    5.7487 H   0  0  0  0  0  0  0  0  0  0  0  0
  -31.6912   22.4833    8.1715 H   0  0  0  0  0  0  0  0  0  0  0  0
  -30.9074   24.0217    7.5377 H   0  0  0  0  0  0  0  0  0  0  0  0
  -33.2084   23.7998    9.1421 H   0  0  0  0  0  0  0  0  0  0  0  0
  -32.5216   25.2634    8.3042 H   0  0  0  0  0  0  0  0  0  0  0  0
  -34.5401   25.3709    7.3268 H   0  0  0  0  0  0  0  0  0  0  0  0
  -33.8550   24.0453    6.2731 H   0  0  0  0  0  0  0  0  0  0  0  0
  -36.2087   23.9863    7.8065 H   0  0  0  0  0  0  0  0  0  0  0  0
  -35.3311   22.6164    6.9322 H   0  0  0  0  0  0  0  0  0  0  0  0
  -34.0618   22.8700    9.3891 H   0  0  0  0  0  0  0  0  0  0  0  0
  -35.8775   22.9846    9.7005 H   0  0  0  0  0  0  0  0  0  0  0  0
  -35.7105   20.7723    9.8827 H   0  0  0  0  0  0  0  0  0  0  0  0
  -35.8044   20.8879    8.0606 H   0  0  0  0  0  0  0  0  0  0  0  0
  -33.2427   20.9358    8.1208 H   0  0  0  0  0  0  0  0  0  0  0  0
  -33.4223   20.3269    9.8233 H   0  0  0  0  0  0  0  0  0  0  0  0
  -34.2791   18.2983    9.1650 H   0  0  0  0  0  0  0  0  0  0  0  0
  -34.8791   18.9642    7.5802 H   0  0  0  0  0  0  0  0  0  0  0  0
  1  2  1  0
  2  3  1  0
  3  4  1  0
  4  5  1  0
  5  6  1  0
  6  7  1  0
  7  8  1  0
  8  9  1  0
  9 10  1  0
 10 11  1  0
 11 12  1  0
 12 13  1  0
 13 14  1  0
 14 15  1  0
 15 16  1  0
 16 17  1  0
 17 18  1  0
 18 19  2  0
 18 20  1  0
  1 21  1  0
  1 22  1  0
  1 23  1  0
  2 24  1  0
  2 25  1  0
  3 26  1  0
  3 27  1  0
  4 28  1  0
  4 29  1  0
  5 30  1  0
  5 31  1  0
  6 32  1  0
  6 33  1  0
  7 34  1  0
  7 35  1  0
  8 36  1  0
  8 37  1  0
  9 38  1  0
  9 39  1  0
 10 40  1  0
 10 41  1  0
 11 42  1  0
 11 43  1  0
 12 44  1  0
 12 45  1  0
 13 46  1  0
 13 47  1  0
 14 48  1  0
 14 49  1  0
 15 50  1  0
 15 51  1  0
 16 52  1  0
 16 53  1  0
 17 54  1  0
 17 55  1  0
M  CHG  1  20  -1
M  END
>  <meeko>  (12) 
{"is_sidechain": [false], "free_energy": -6.068, "intermolecular_energy": -11.302, "internal_energy": -2.684}

$$$$
stearate_Nlobe_run01
     RDKit          3D

 55 54  0  0  0  0  0  0  0  0999 V2000
  -33.8270   22.8980   11.4380 C   0  0  0  0  0  0  0  0  0  0  0  0
  -34.3410   21.8450   10.4670 C   0  0  0  0  0  0  0  0  0  0  0  0
  -34.5530   20.4730   11.1110 C   0  0  0  0  0  0  0  0  0  0  0  0
  -34.2220   19.3070   10.1750 C   0  0  0  0  0  0  0  0  0  0  0  0
  -34.1610   19.7680    8.7170 C   0  0  0  0  0  0  0  0  0  0  0  0
  -33.2010   18.9410    7.8570 C   0  0  0  0  0  0  0  0  0  0  0  0
  -32.0650   19.7230    7.1890 C   0  0  0  0  0  0  0  0  0  0  0  0
  -32.4960   20.7930    6.1810 C   0  0  0  0  0  0  0  0  0  0  0  0
  -31.8340   22.1500    6.4150 C   0  0  0  0  0  0  0  0  0  0  0  0
  -31.7720   22.5780    7.8860 C   0  0  0  0  0  0  0  0  0  0  0  0
  -32.2520   24.0080    8.1680 C   0  0  0  0  0  0  0  0  0  0  0  0
  -33.2820   24.4980    7.1450 C   0  0  0  0  0  0  0  0  0  0  0  0
  -34.7310   24.2030    7.5490 C   0  0  0  0  0  0  0  0  0  0  0  0
  -35.3080   22.8730    7.0560 C   0  0  0  0  0  0  0  0  0  0  0  0
  -36.7680   22.5970    7.4310 C   0  0  0  0  0  0  0  0  0  0  0  0
  -37.3840   21.4150    6.6770 C   0  0  0  0  0  0  0  0  0  0  0  0
  -36.3260   20.5570    5.9860 C   0  0  0  0  0  0  0  0  0  0  0  0
  -36.2430   20.8200    4.5070 C   0  0  0  0  0  0  0  0  0  0  0  0
  -35.2710   21.2450    3.9070 O   0  0  0  0  0  0  0  0  0  0  0  0
  -37.3750   20.5120    3.8500 O   0  0  0  0  0  0  0  0  0  0  0  0
  -33.9934   22.5570   12.4705 H   0  0  0  0  0  0  0  0  0  0  0  0
  -32.7509   23.0551   11.2727 H   0  0  0  0  0  0  0  0  0  0  0  0
  -34.3651   23.8430   11.2727 H   0  0  0  0  0  0  0  0  0  0  0  0
  -35.3017   22.1892   10.0565 H   0  0  0  0  0  0  0  0  0  0  0  0
  -33.5747   21.7218    9.6876 H   0  0  0  0  0  0  0  0  0  0  0  0
  -33.9087   20.4011   11.9997 H   0  0  0  0  0  0  0  0  0  0  0  0
  -35.6203   20.3938   11.3654 H   0  0  0  0  0  0  0  0  0  0  0  0
  -33.2468   18.8847   10.4589 H   0  0  0  0  0  0  0  0  0  0  0  0
  -35.0144   18.5498   10.2681 H   0  0  0  0  0  0  0  0  0  0  0  0
  -35.1697   19.6920    8.2849 H   0  0  0  0  0  0  0  0  0  0  0  0
  -33.7861   20.8022    8.7190 H   0  0  0  0  0  0  0  0  0  0  0  0
  -32.7489   18.1715    8.5000 H   0  0  0  0  0  0  0  0  0  0  0  0
  -33.8090   18.5351    7.0351 H   0  0  0  0  0  0  0  0  0  0  0  0
  -31.4854   20.2194    7.9812 H   0  0  0  0  0  0  0  0  0  0  0  0
  -31.4911   18.9827    6.6123 H   0  0  0  0  0  0  0  0  0  0  0  0
  -32.2327   20.4463    5.1708 H   0  0  0  0  0  0  0  0  0  0  0  0
  -33.5799   20.9355    6.3028 H   0  0  0  0  0  0  0  0  0  0  0  0
  -30.8060   22.1031    6.0265 H   0  0  0  0  0  0  0  0  0  0  0  0
  -32.4541   22.8960    5.8964 H   0  0  0  0  0  0  0  0  0  0  0  0
  -32.3987   21.8869    8.4688 H   0  0  0  0  0  0  0  0  0  0  0  0
  -30.7094   22.5498    8.1690 H   0  0  0  0  0  0  0  0  0  0  0  0
  -32.7089   24.0351    9.1682 H   0  0  0  0  0  0  0  0  0  0  0  0
  -31.3770   24.6714    8.1027 H   0  0  0  0  0  0  0  0  0  0  0  0
  -33.1673   25.5858    7.0286 H   0  0  0  0  0  0  0  0  0  0  0  0
  -33.0903   23.9564    6.2070 H   0  0  0  0  0  0  0  0  0  0  0  0
  -34.7810   24.2048    8.6479 H   0  0  0  0  0  0  0  0  0  0  0  0
  -35.3376   24.9853    7.0694 H   0  0  0  0  0  0  0  0  0  0  0  0
  -35.2335   22.8594    5.9586 H   0  0  0  0  0  0  0  0  0  0  0  0
  -34.7191   22.0896    7.5554 H   0  0  0  0  0  0  0  0  0  0  0  0
  -36.8154   22.3840    8.5091 H   0  0  0  0  0  0  0  0  0  0  0  0
  -37.3457   23.4913    7.1543 H   0  0  0  0  0  0  0  0  0  0  0  0
  -37.9369   20.7880    7.3920 H   0  0  0  0  0  0  0  0  0  0  0  0
  -38.0502   21.8197    5.9009 H   0  0  0  0  0  0  0  0  0  0  0  0
  -35.3467   20.7736    6.4378 H   0  0  0  0  0  0  0  0  0  0  0  0
  -36.6113   19.5033    6.1214 H   0  0  0  0  0  0  0  0  0  0  0  0
  1  2  1  0
  2  3  1  0
  3  4  1  0
  4  5  1  0
  5  6  1  0
  6  7  1  0
  7  8  1  0
  8  9  1  0
  9 10  1  0
 10 11  1  0
 11 12  1  0
 12 13  1  0
 13 14  1  0
 14 15  1  0
 15 16  1  0
 16 17  1  0
 17 18  1  0
 18 19  2  0
 18 20  1  0
  1 21  1  0
  1 22  1  0
  1 23  1  0
  2 24  1  0
  2 25  1  0
  3 26  1  0
  3 27  1  0
  4 28  1  0
  4 29  1  0
  5 30  1  0
  5 31  1  0
  6 32  1  0
  6 33  1  0
  7 34  1  0
  7 35  1  0
  8 36  1  0
  8 37  1  0
  9 38  1  0
  9 39  1  0
 10 40  1  0
 10 41  1  0
 11 42  1  0
 11 43  1  0
 12 44  1  0
 12 45  1  0
 13 46  1  0
 13 47  1  0
 14 48  1  0
 14 49  1  0
 15 50  1  0
 15 51  1  0
 16 52  1  0
 16 53  1  0
 17 54  1  0
 17 55  1  0
M  CHG  1  20  -1
M  END
>  <meeko>  (13) 
{"is_sidechain": [false], "free_energy": -6.024, "intermolecular_energy": -11.322, "internal_energy": -2.579}

$$$$
stearate_Nlobe_run01
     RDKit          3D

 55 54  0  0  0  0  0  0  0  0999 V2000
  -32.6780   25.3460    7.3780 C   0  0  0  0  0  0  0  0  0  0  0  0
  -31.9540   24.5270    8.4360 C   0  0  0  0  0  0  0  0  0  0  0  0
  -32.1220   23.0160    8.2600 C   0  0  0  0  0  0  0  0  0  0  0  0
  -31.8520   22.5390    6.8300 C   0  0  0  0  0  0  0  0  0  0  0  0
  -33.1520   22.1510    6.1220 C   0  0  0  0  0  0  0  0  0  0  0  0
  -32.9530   21.1200    5.0060 C   0  0  0  0  0  0  0  0  0  0  0  0
  -34.2170   20.7180    4.2380 C   0  0  0  0  0  0  0  0  0  0  0  0
  -35.4950   21.4720    4.6190 C   0  0  0  0  0  0  0  0  0  0  0  0
  -36.7740   20.7100    4.2780 C   0  0  0  0  0  0  0  0  0  0  0  0
  -37.6690   20.4030    5.4860 C   0  0  0  0  0  0  0  0  0  0  0  0
  -37.3710   21.2320    6.7420 C   0  0  0  0  0  0  0  0  0  0  0  0
  -36.4490   20.5050    7.7250 C   0  0  0  0  0  0  0  0  0  0  0  0
  -35.5080   21.4440    8.4870 C   0  0  0  0  0  0  0  0  0  0  0  0
  -34.7810   20.8360    9.6910 C   0  0  0  0  0  0  0  0  0  0  0  0
  -34.1620   19.4520    9.4690 C   0  0  0  0  0  0  0  0  0  0  0  0
  -32.9220   19.4710    8.5710 C   0  0  0  0  0  0  0  0  0  0  0  0
  -32.9790   18.4000    7.4840 C   0  0  0  0  0  0  0  0  0  0  0  0
  -31.6510   18.1850    6.8120 C   0  0  0  0  0  0  0  0  0  0  0  0
  -30.5670   18.1220    7.3650 O   0  0  0  0  0  0  0  0  0  0  0  0
  -31.7520   18.0330    5.4790 O   0  0  0  0  0  0  0  0  0  0  0  0
  -33.3302   26.0838    7.8682 H   0  0  0  0  0  0  0  0  0  0  0  0
  -31.9407   25.8681    6.7504 H   0  0  0  0  0  0  0  0  0  0  0  0
  -33.2866   24.6784    6.7504 H   0  0  0  0  0  0  0  0  0  0  0  0
  -30.8814   24.7659    8.3874 H   0  0  0  0  0  0  0  0  0  0  0  0
  -32.3968   24.7905    9.4078 H   0  0  0  0  0  0  0  0  0  0  0  0
  -31.4208   22.5056    8.9366 H   0  0  0  0  0  0  0  0  0  0  0  0
  -33.1702   22.7756    8.4912 H   0  0  0  0  0  0  0  0  0  0  0  0
  -31.3649   23.3490    6.2674 H   0  0  0  0  0  0  0  0  0  0  0  0
  -31.2017   21.6529    6.8750 H   0  0  0  0  0  0  0  0  0  0  0  0
  -33.8424   21.7292    6.8673 H   0  0  0  0  0  0  0  0  0  0  0  0
  -33.5515   23.0629    5.6541 H   0  0  0  0  0  0  0  0  0  0  0  0
  -32.2374   21.5386    4.2831 H   0  0  0  0  0  0  0  0  0  0  0  0
  -32.6012   20.2043    5.5037 H   0  0  0  0  0  0  0  0  0  0  0  0
  -34.0305   20.8888    3.1675 H   0  0  0  0  0  0  0  0  0  0  0  0
  -34.4023   19.6650    4.4966 H   0  0  0  0  0  0  0  0  0  0  0  0
  -35.4793   21.6592    5.7028 H   0  0  0  0  0  0  0  0  0  0  0  0
  -35.5076   22.4046    4.0358 H   0  0  0  0  0  0  0  0  0  0  0  0
  -37.3542   21.3133    3.5642 H   0  0  0  0  0  0  0  0  0  0  0  0
  -36.4611   19.7401    3.8640 H   0  0  0  0  0  0  0  0  0  0  0  0
  -38.7128   20.5901    5.1935 H   0  0  0  0  0  0  0  0  0  0  0  0
  -37.4718   19.3550    5.7558 H   0  0  0  0  0  0  0  0  0  0  0  0
  -36.8886   22.1723    6.4368 H   0  0  0  0  0  0  0  0  0  0  0  0
  -38.3270   21.4131    7.2551 H   0  0  0  0  0  0  0  0  0  0  0  0
  -37.0723   19.9683    8.4554 H   0  0  0  0  0  0  0  0  0  0  0  0
  -35.8188   19.8235    7.1348 H   0  0  0  0  0  0  0  0  0  0  0  0
  -34.7457   21.8028    7.7798 H   0  0  0  0  0  0  0  0  0  0  0  0
  -36.1500   22.2369    8.8982 H   0  0  0  0  0  0  0  0  0  0  0  0
  -33.9731   21.5243    9.9799 H   0  0  0  0  0  0  0  0  0  0  0  0
  -35.5503   20.6977   10.4650 H   0  0  0  0  0  0  0  0  0  0  0  0
  -33.8764   19.0380   10.4473 H   0  0  0  0  0  0  0  0  0  0  0  0
  -34.9194   18.8383    8.9595 H   0  0  0  0  0  0  0  0  0  0  0  0
  -32.8471   20.4582    8.0917 H   0  0  0  0  0  0  0  0  0  0  0  0
  -32.0453   19.2643    9.2024 H   0  0  0  0  0  0  0  0  0  0  0  0
  -33.3002   17.4520    7.9403 H   0  0  0  0  0  0  0  0  0  0  0  0
  -33.6886   18.7426    6.7164 H   0  0  0  0  0  0  0  0  0  0  0  0
  1  2  1  0
  2  3  1  0
  3  4  1  0
  4  5  1  0
  5  6  1  0
  6  7  1  0
  7  8  1  0
  8  9  1  0
  9 10  1  0
 10 11  1  0
 11 12  1  0
 12 13  1  0
 13 14  1  0
 14 15  1  0
 15 16  1  0
 16 17  1  0
 17 18  1  0
 18 19  2  0
 18 20  1  0
  1 21  1  0
  1 22  1  0
  1 23  1  0
  2 24  1  0
  2 25  1  0
  3 26  1  0
  3 27  1  0
  4 28  1  0
  4 29  1  0
  5 30  1  0
  5 31  1  0
  6 32  1  0
  6 33  1  0
  7 34  1  0
  7 35  1  0
  8 36  1  0
  8 37  1  0
  9 38  1  0
  9 39  1  0
 10 40  1  0
 10 41  1  0
 11 42  1  0
 11 43  1  0
 12 44  1  0
 12 45  1  0
 13 46  1  0
 13 47  1  0
 14 48  1  0
 14 49  1  0
 15 50  1  0
 15 51  1  0
 16 52  1  0
 16 53  1  0
 17 54  1  0
 17 55  1  0
M  CHG  1  20  -1
M  END
>  <meeko>  (14) 
{"is_sidechain": [false], "free_energy": -6.006, "intermolecular_energy": -11.761, "internal_energy": -2.106}

$$$$
stearate_Nlobe_run01
     RDKit          3D

 55 54  0  0  0  0  0  0  0  0999 V2000
  -32.7650   20.1980    3.9560 C   0  0  0  0  0  0  0  0  0  0  0  0
  -33.4720   20.0810    5.2980 C   0  0  0  0  0  0  0  0  0  0  0  0
  -32.5750   20.4170    6.4920 C   0  0  0  0  0  0  0  0  0  0  0  0
  -32.5230   19.3050    7.5430 C   0  0  0  0  0  0  0  0  0  0  0  0
  -33.9060   19.0480    8.1470 C   0  0  0  0  0  0  0  0  0  0  0  0
  -34.0280   19.5060    9.6040 C   0  0  0  0  0  0  0  0  0  0  0  0
  -34.8360   20.7880    9.8320 C   0  0  0  0  0  0  0  0  0  0  0  0
  -34.3710   21.6690   10.9970 C   0  0  0  0  0  0  0  0  0  0  0  0
  -33.6990   22.9650   10.5480 C   0  0  0  0  0  0  0  0  0  0  0  0
  -32.8540   22.8320    9.2750 C   0  0  0  0  0  0  0  0  0  0  0  0
  -32.4750   24.1590    8.6050 C   0  0  0  0  0  0  0  0  0  0  0  0
  -33.1200   24.3310    7.2260 C   0  0  0  0  0  0  0  0  0  0  0  0
  -34.6460   24.1960    7.2460 C   0  0  0  0  0  0  0  0  0  0  0  0
  -35.2200   22.9610    6.5430 C   0  0  0  0  0  0  0  0  0  0  0  0
  -36.4840   22.3630    7.1700 C   0  0  0  0  0  0  0  0  0  0  0  0
  -36.7780   20.9310    6.7130 C   0  0  0  0  0  0  0  0  0  0  0  0
  -38.1530   20.4500    7.1690 C   0  0  0  0  0  0  0  0  0  0  0  0
  -39.2780   21.1810    6.4890 C   0  0  0  0  0  0  0  0  0  0  0  0
  -39.9960   22.0260    6.9950 O   0  0  0  0  0  0  0  0  0  0  0  0
  -39.4320   20.8330    5.1990 O   0  0  0  0  0  0  0  0  0  0  0  0
  -31.6920   20.3756    4.1211 H   0  0  0  0  0  0  0  0  0  0  0  0
  -32.8992   19.2654    3.3883 H   0  0  0  0  0  0  0  0  0  0  0  0
  -33.1925   21.0376    3.3883 H   0  0  0  0  0  0  0  0  0  0  0  0
  -34.3290   20.7706    5.3014 H   0  0  0  0  0  0  0  0  0  0  0  0
  -33.7808   19.0313    5.4106 H   0  0  0  0  0  0  0  0  0  0  0  0
  -31.5545   20.5960    6.1224 H   0  0  0  0  0  0  0  0  0  0  0  0
  -33.0015   21.3060    6.9796 H   0  0  0  0  0  0  0  0  0  0  0  0
  -32.1610   18.3805    7.0694 H   0  0  0  0  0  0  0  0  0  0  0  0
  -31.8441   19.6197    8.3493 H   0  0  0  0  0  0  0  0  0  0  0  0
  -34.6540   19.5880    7.5479 H   0  0  0  0  0  0  0  0  0  0  0  0
  -34.0693   17.9603    8.1336 H   0  0  0  0  0  0  0  0  0  0  0  0
  -34.5095   18.6973   10.1733 H   0  0  0  0  0  0  0  0  0  0  0  0
  -33.0036   19.7346    9.9333 H   0  0  0  0  0  0  0  0  0  0  0  0
  -34.7832   21.3888    8.9121 H   0  0  0  0  0  0  0  0  0  0  0  0
  -35.8528   20.4590   10.0925 H   0  0  0  0  0  0  0  0  0  0  0  0
  -35.2467   21.9252   11.6113 H   0  0  0  0  0  0  0  0  0  0  0  0
  -33.6216   21.0933   11.5600 H   0  0  0  0  0  0  0  0  0  0  0  0
  -34.4837   23.7135   10.3635 H   0  0  0  0  0  0  0  0  0  0  0  0
  -33.0093   23.2567   11.3538 H   0  0  0  0  0  0  0  0  0  0  0  0
  -31.9248   22.3043    9.5361 H   0  0  0  0  0  0  0  0  0  0  0  0
  -33.4766   22.2886    8.5490 H   0  0  0  0  0  0  0  0  0  0  0  0
  -32.8024   24.9860    9.2522 H   0  0  0  0  0  0  0  0  0  0  0  0
  -31.3841   24.1600    8.4638 H   0  0  0  0  0  0  0  0  0  0  0  0
  -32.8635   25.3299    6.8434 H   0  0  0  0  0  0  0  0  0  0  0  0
  -32.7316   23.5269    6.5837 H   0  0  0  0  0  0  0  0  0  0  0  0
  -34.9674   24.1646    8.2975 H   0  0  0  0  0  0  0  0  0  0  0  0
  -35.0279   25.0614    6.6845 H   0  0  0  0  0  0  0  0  0  0  0  0
  -35.4584   23.2430    5.5068 H   0  0  0  0  0  0  0  0  0  0  0  0
  -34.4474   22.1827    6.6289 H   0  0  0  0  0  0  0  0  0  0  0  0
  -36.3620   22.3608    8.2632 H   0  0  0  0  0  0  0  0  0  0  0  0
  -37.3305   22.9853    6.8441 H   0  0  0  0  0  0  0  0  0  0  0  0
  -36.7365   20.8944    5.6144 H   0  0  0  0  0  0  0  0  0  0  0  0
  -36.0229   20.2710    7.1649 H   0  0  0  0  0  0  0  0  0  0  0  0
  -38.2432   19.3771    6.9436 H   0  0  0  0  0  0  0  0  0  0  0  0
  -38.2330   20.6467    8.2483 H   0  0  0  0  0  0  0  0  0  0  0  0
  1  2  1  0
  2  3  1  0
  3  4  1  0
  4  5  1  0
  5  6  1  0
  6  7  1  0
  7  8  1  0
  8  9  1  0
  9 10  1  0
 10 11  1  0
 11 12  1  0
 12 13  1  0
 13 14  1  0
 14 15  1  0
 15 16  1  0
 16 17  1  0
 17 18  1  0
 18 19  2  0
 18 20  1  0
  1 21  1  0
  1 22  1  0
  1 23  1  0
  2 24  1  0
  2 25  1  0
  3 26  1  0
  3 27  1  0
  4 28  1  0
  4 29  1  0
  5 30  1  0
  5 31  1  0
  6 32  1  0
  6 33  1  0
  7 34  1  0
  7 35  1  0
  8 36  1  0
  8 37  1  0
  9 38  1  0
  9 39  1  0
 10 40  1  0
 10 41  1  0
 11 42  1  0
 11 43  1  0
 12 44  1  0
 12 45  1  0
 13 46  1  0
 13 47  1  0
 14 48  1  0
 14 49  1  0
 15 50  1  0
 15 51  1  0
 16 52  1  0
 16 53  1  0
 17 54  1  0
 17 55  1  0
M  CHG  1  20  -1
M  END
>  <meeko>  (15) 
{"is_sidechain": [false], "free_energy": -6.002, "intermolecular_energy": -11.356, "internal_energy": -2.503}

$$$$
stearate_Nlobe_run01
     RDKit          3D

 55 54  0  0  0  0  0  0  0  0999 V2000
  -32.8190   18.1490    6.9050 C   0  0  0  0  0  0  0  0  0  0  0  0
  -32.7350   18.8310    8.2620 C   0  0  0  0  0  0  0  0  0  0  0  0
  -34.0840   19.3460    8.7720 C   0  0  0  0  0  0  0  0  0  0  0  0
  -34.1230   19.5420   10.2890 C   0  0  0  0  0  0  0  0  0  0  0  0
  -34.8750   20.8220   10.6620 C   0  0  0  0  0  0  0  0  0  0  0  0
  -34.0860   22.1010   10.3620 C   0  0  0  0  0  0  0  0  0  0  0  0
  -34.7040   23.0330    9.3140 C   0  0  0  0  0  0  0  0  0  0  0  0
  -33.7220   23.6550    8.3170 C   0  0  0  0  0  0  0  0  0  0  0  0
  -32.3160   23.0640    8.3980 C   0  0  0  0  0  0  0  0  0  0  0  0
  -32.0110   22.0080    7.3280 C   0  0  0  0  0  0  0  0  0  0  0  0
  -32.5070   22.3500    5.9170 C   0  0  0  0  0  0  0  0  0  0  0  0
  -32.7460   21.1050    5.0570 C   0  0  0  0  0  0  0  0  0  0  0  0
  -34.1870   20.9820    4.5480 C   0  0  0  0  0  0  0  0  0  0  0  0
  -35.2320   20.5600    5.5870 C   0  0  0  0  0  0  0  0  0  0  0  0
  -36.0460   21.6960    6.2150 C   0  0  0  0  0  0  0  0  0  0  0  0
  -37.0120   21.2280    7.3070 C   0  0  0  0  0  0  0  0  0  0  0  0
  -38.1620   20.3970    6.7430 C   0  0  0  0  0  0  0  0  0  0  0  0
  -39.5100   20.9870    7.0520 C   0  0  0  0  0  0  0  0  0  0  0  0
  -39.8500   22.1420    6.8600 O   0  0  0  0  0  0  0  0  0  0  0  0
  -40.3760   20.0930    7.5640 O   0  0  0  0  0  0  0  0  0  0  0  0
  -32.9524   17.0663    7.0464 H   0  0  0  0  0  0  0  0  0  0  0  0
  -33.6741   18.5535    6.3436 H   0  0  0  0  0  0  0  0  0  0  0  0
  -31.8913   18.3340    6.3436 H   0  0  0  0  0  0  0  0  0  0  0  0
  -32.3402   18.1081    8.9911 H   0  0  0  0  0  0  0  0  0  0  0  0
  -32.0786   19.7058    8.1441 H   0  0  0  0  0  0  0  0  0  0  0  0
  -34.2938   20.3121    8.2897 H   0  0  0  0  0  0  0  0  0  0  0  0
  -34.8385   18.5854    8.5224 H   0  0  0  0  0  0  0  0  0  0  0  0
  -34.6298   18.6810   10.7492 H   0  0  0  0  0  0  0  0  0  0  0  0
  -33.0895   19.6253   10.6564 H   0  0  0  0  0  0  0  0  0  0  0  0
  -35.8163   20.8516   10.0935 H   0  0  0  0  0  0  0  0  0  0  0  0
  -35.0459   20.7933   11.7483 H   0  0  0  0  0  0  0  0  0  0  0  0
  -33.9883   22.6658   11.3008 H   0  0  0  0  0  0  0  0  0  0  0  0
  -33.1264   21.7689    9.9391 H   0  0  0  0  0  0  0  0  0  0  0  0
  -35.4450   22.4548    8.7425 H   0  0  0  0  0  0  0  0  0  0  0  0
  -35.1331   23.8749    9.8772 H   0  0  0  0  0  0  0  0  0  0  0  0
  -34.1094   23.4941    7.3001 H   0  0  0  0  0  0  0  0  0  0  0  0
  -33.6392   24.7229    8.5675 H   0  0  0  0  0  0  0  0  0  0  0  0
  -31.5911   23.8841    8.2888 H   0  0  0  0  0  0  0  0  0  0  0  0
  -32.2442   22.5557    9.3708 H   0  0  0  0  0  0  0  0  0  0  0  0
  -30.9202   21.8738    7.2827 H   0  0  0  0  0  0  0  0  0  0  0  0
  -32.5516   21.0992    7.6312 H   0  0  0  0  0  0  0  0  0  0  0  0
  -33.4522   22.9063    6.0013 H   0  0  0  0  0  0  0  0  0  0  0  0
  -31.7255   22.9484    5.4258 H   0  0  0  0  0  0  0  0  0  0  0  0
  -32.0722   21.1469    4.1886 H   0  0  0  0  0  0  0  0  0  0  0  0
  -32.5513   20.2293    5.6935 H   0  0  0  0  0  0  0  0  0  0  0  0
  -34.4872   21.9613    4.1470 H   0  0  0  0  0  0  0  0  0  0  0  0
  -34.1698   20.1759    3.7998 H   0  0  0  0  0  0  0  0  0  0  0  0
  -35.9361   19.8716    5.0968 H   0  0  0  0  0  0  0  0  0  0  0  0
  -34.6648   20.1072    6.4136 H   0  0  0  0  0  0  0  0  0  0  0  0
  -35.3470   22.4214    6.6568 H   0  0  0  0  0  0  0  0  0  0  0  0
  -36.6558   22.1371    5.4128 H   0  0  0  0  0  0  0  0  0  0  0  0
  -36.4562   20.6167    8.0332 H   0  0  0  0  0  0  0  0  0  0  0  0
  -37.4428   22.1217    7.7821 H   0  0  0  0  0  0  0  0  0  0  0  0
  -38.0476   20.3334    5.6508 H   0  0  0  0  0  0  0  0  0  0  0  0
  -38.1175   19.4044    7.2151 H   0  0  0  0  0  0  0  0  0  0  0  0
  1  2  1  0
  2  3  1  0
  3  4  1  0
  4  5  1  0
  5  6  1  0
  6  7  1  0
  7  8  1  0
  8  9  1  0
  9 10  1  0
 10 11  1  0
 11 12  1  0
 12 13  1  0
 13 14  1  0
 14 15  1  0
 15 16  1  0
 16 17  1  0
 17 18  1  0
 18 19  2  0
 18 20  1  0
  1 21  1  0
  1 22  1  0
  1 23  1  0
  2 24  1  0
  2 25  1  0
  3 26  1  0
  3 27  1  0
  4 28  1  0
  4 29  1  0
  5 30  1  0
  5 31  1  0
  6 32  1  0
  6 33  1  0
  7 34  1  0
  7 35  1  0
  8 36  1  0
  8 37  1  0
  9 38  1  0
  9 39  1  0
 10 40  1  0
 10 41  1  0
 11 42  1  0
 11 43  1  0
 12 44  1  0
 12 45  1  0
 13 46  1  0
 13 47  1  0
 14 48  1  0
 14 49  1  0
 15 50  1  0
 15 51  1  0
 16 52  1  0
 16 53  1  0
 17 54  1  0
 17 55  1  0
M  CHG  1  20  -1
M  END
>  <meeko>  (16) 
{"is_sidechain": [false], "free_energy": -5.988, "intermolecular_energy": -11.172, "internal_energy": -2.659}

$$$$
stearate_Nlobe_run01
     RDKit          3D

 55 54  0  0  0  0  0  0  0  0999 V2000
  -40.4720   20.9570    2.3340 C   0  0  0  0  0  0  0  0  0  0  0  0
  -39.5230   20.6150    3.4730 C   0  0  0  0  0  0  0  0  0  0  0  0
  -38.0570   20.5260    3.0420 C   0  0  0  0  0  0  0  0  0  0  0  0
  -37.0800   20.4980    4.2190 C   0  0  0  0  0  0  0  0  0  0  0  0
  -37.8230   20.5500    5.5560 C   0  0  0  0  0  0  0  0  0  0  0  0
  -36.9080   20.8440    6.7500 C   0  0  0  0  0  0  0  0  0  0  0  0
  -37.0080   22.2580    7.3320 C   0  0  0  0  0  0  0  0  0  0  0  0
  -35.7560   22.7740    8.0490 C   0  0  0  0  0  0  0  0  0  0  0  0
  -35.3410   24.1770    7.6130 C   0  0  0  0  0  0  0  0  0  0  0  0
  -33.9890   24.2420    6.8910 C   0  0  0  0  0  0  0  0  0  0  0  0
  -32.9820   25.2360    7.4850 C   0  0  0  0  0  0  0  0  0  0  0  0
  -31.9020   24.5520    8.3280 C   0  0  0  0  0  0  0  0  0  0  0  0
  -32.1010   23.0380    8.4630 C   0  0  0  0  0  0  0  0  0  0  0  0
  -31.7240   22.1990    7.2370 C   0  0  0  0  0  0  0  0  0  0  0  0
  -31.8170   20.6800    7.4130 C   0  0  0  0  0  0  0  0  0  0  0  0
  -33.1060   20.0740    6.8520 C   0  0  0  0  0  0  0  0  0  0  0  0
  -33.5260   20.7260    5.5370 C   0  0  0  0  0  0  0  0  0  0  0  0
  -32.8910   20.0750    4.3380 C   0  0  0  0  0  0  0  0  0  0  0  0
  -32.3020   19.0080    4.3280 O   0  0  0  0  0  0  0  0  0  0  0  0
  -33.0490   20.7840    3.2060 O   0  0  0  0  0  0  0  0  0  0  0  0
  -41.4311   21.3026    2.7471 H   0  0  0  0  0  0  0  0  0  0  0  0
  -40.0310   21.7528    1.7157 H   0  0  0  0  0  0  0  0  0  0  0  0
  -40.6400   20.0629    1.7157 H   0  0  0  0  0  0  0  0  0  0  0  0
  -39.6119   21.3930    4.2455 H   0  0  0  0  0  0  0  0  0  0  0  0
  -39.8110   19.6210    3.8460 H   0  0  0  0  0  0  0  0  0  0  0  0
  -37.9214   19.6064    2.4539 H   0  0  0  0  0  0  0  0  0  0  0  0
  -37.8346   21.4299    2.4559 H   0  0  0  0  0  0  0  0  0  0  0  0
  -36.4889   19.5715    4.1727 H   0  0  0  0  0  0  0  0  0  0  0  0
  -36.4255   21.3794    4.1496 H   0  0  0  0  0  0  0  0  0  0  0  0
  -38.5872   21.3392    5.4997 H   0  0  0  0  0  0  0  0  0  0  0  0
  -38.2634   19.5557    5.7216 H   0  0  0  0  0  0  0  0  0  0  0  0
  -37.1567   20.1310    7.5499 H   0  0  0  0  0  0  0  0  0  0  0  0
  -35.8800   20.7482    6.3705 H   0  0  0  0  0  0  0  0  0  0  0  0
  -37.2321   22.9482    6.5053 H   0  0  0  0  0  0  0  0  0  0  0  0
  -37.7938   22.2100    8.1002 H   0  0  0  0  0  0  0  0  0  0  0  0
  -35.9556   22.7900    9.1306 H   0  0  0  0  0  0  0  0  0  0  0  0
  -34.9302   22.0958    7.7879 H   0  0  0  0  0  0  0  0  0  0  0  0
  -36.1128   24.5687    6.9341 H   0  0  0  0  0  0  0  0  0  0  0  0
  -35.2355   24.7730    8.5315 H   0  0  0  0  0  0  0  0  0  0  0  0
  -33.5373   23.2395    6.9221 H   0  0  0  0  0  0  0  0  0  0  0  0
  -34.2026   24.5943    5.8711 H   0  0  0  0  0  0  0  0  0  0  0  0
  -32.4945   25.7776    6.6610 H   0  0  0  0  0  0  0  0  0  0  0  0
  -33.5382   25.9163    8.1468 H   0  0  0  0  0  0  0  0  0  0  0  0
  -30.9248   24.7343    7.8569 H   0  0  0  0  0  0  0  0  0  0  0  0
  -31.9625   24.9784    9.3402 H   0  0  0  0  0  0  0  0  0  0  0  0
  -31.4886   22.6921    9.3088 H   0  0  0  0  0  0  0  0  0  0  0  0
  -33.1825   22.8921    8.6011 H   0  0  0  0  0  0  0  0  0  0  0  0
  -32.3949   22.4848    6.4135 H   0  0  0  0  0  0  0  0  0  0  0  0
  -30.6622   22.4125    7.0446 H   0  0  0  0  0  0  0  0  0  0  0  0
  -30.9625   20.2175    6.8972 H   0  0  0  0  0  0  0  0  0  0  0  0
  -31.8119   20.4805    8.4947 H   0  0  0  0  0  0  0  0  0  0  0  0
  -32.9462   18.9995    6.6793 H   0  0  0  0  0  0  0  0  0  0  0  0
  -33.9073   20.2472    7.5855 H   0  0  0  0  0  0  0  0  0  0  0  0
  -34.6192   20.6513    5.4404 H   0  0  0  0  0  0  0  0  0  0  0  0
  -33.1909   21.7734    5.5632 H   0  0  0  0  0  0  0  0  0  0  0  0
  1  2  1  0
  2  3  1  0
  3  4  1  0
  4  5  1  0
  5  6  1  0
  6  7  1  0
  7  8  1  0
  8  9  1  0
  9 10  1  0
 10 11  1  0
 11 12  1  0
 12 13  1  0
 13 14  1  0
 14 15  1  0
 15 16  1  0
 16 17  1  0
 17 18  1  0
 18 19  2  0
 18 20  1  0
  1 21  1  0
  1 22  1  0
  1 23  1  0
  2 24  1  0
  2 25  1  0
  3 26  1  0
  3 27  1  0
  4 28  1  0
  4 29  1  0
  5 30  1  0
  5 31  1  0
  6 32  1  0
  6 33  1  0
  7 34  1  0
  7 35  1  0
  8 36  1  0
  8 37  1  0
  9 38  1  0
  9 39  1  0
 10 40  1  0
 10 41  1  0
 11 42  1  0
 11 43  1  0
 12 44  1  0
 12 45  1  0
 13 46  1  0
 13 47  1  0
 14 48  1  0
 14 49  1  0
 15 50  1  0
 15 51  1  0
 16 52  1  0
 16 53  1  0
 17 54  1  0
 17 55  1  0
M  CHG  1  20  -1
M  END
>  <meeko>  (17) 
{"is_sidechain": [false], "free_energy": -5.977, "intermolecular_energy": -12.397, "internal_energy": -1.414}

$$$$
stearate_Nlobe_run01
     RDKit          3D

 55 54  0  0  0  0  0  0  0  0999 V2000
  -39.8710   21.3450    7.7140 C   0  0  0  0  0  0  0  0  0  0  0  0
  -38.9430   20.2200    7.2830 C   0  0  0  0  0  0  0  0  0  0  0  0
  -38.1330   20.5430    6.0240 C   0  0  0  0  0  0  0  0  0  0  0  0
  -36.6400   20.7430    6.2990 C   0  0  0  0  0  0  0  0  0  0  0  0
  -36.3370   22.1950    6.6750 C   0  0  0  0  0  0  0  0  0  0  0  0
  -35.9790   22.3790    8.1530 C   0  0  0  0  0  0  0  0  0  0  0  0
  -35.2330   21.2110    8.8070 C   0  0  0  0  0  0  0  0  0  0  0  0
  -34.3170   21.5780    9.9790 C   0  0  0  0  0  0  0  0  0  0  0  0
  -33.8080   23.0170    9.9240 C   0  0  0  0  0  0  0  0  0  0  0  0
  -32.5780   23.2200    9.0310 C   0  0  0  0  0  0  0  0  0  0  0  0
  -32.7180   24.3210    7.9720 C   0  0  0  0  0  0  0  0  0  0  0  0
  -32.1830   23.8950    6.6010 C   0  0  0  0  0  0  0  0  0  0  0  0
  -31.8460   22.4030    6.5150 C   0  0  0  0  0  0  0  0  0  0  0  0
  -32.9880   21.4810    6.0740 C   0  0  0  0  0  0  0  0  0  0  0  0
  -32.7660   20.7240    4.7600 C   0  0  0  0  0  0  0  0  0  0  0  0
  -32.4770   19.2320    4.9530 C   0  0  0  0  0  0  0  0  0  0  0  0
  -32.9440   18.7240    6.3150 C   0  0  0  0  0  0  0  0  0  0  0  0
  -31.8010   18.3630    7.2230 C   0  0  0  0  0  0  0  0  0  0  0  0
  -30.7990   17.7450    6.9050 O   0  0  0  0  0  0  0  0  0  0  0  0
  -31.9590   18.8160    8.4790 O   0  0  0  0  0  0  0  0  0  0  0  0
  -39.9077   21.3895    8.8125 H   0  0  0  0  0  0  0  0  0  0  0  0
  -39.4954   22.3011    7.3206 H   0  0  0  0  0  0  0  0  0  0  0  0
  -40.8811   21.1581    7.3206 H   0  0  0  0  0  0  0  0  0  0  0  0
  -38.2414   20.0136    8.1047 H   0  0  0  0  0  0  0  0  0  0  0  0
  -39.5759   19.3521    7.0460 H   0  0  0  0  0  0  0  0  0  0  0  0
  -38.2487   19.7126    5.3119 H   0  0  0  0  0  0  0  0  0  0  0  0
  -38.5200   21.4909    5.6219 H   0  0  0  0  0  0  0  0  0  0  0  0
  -36.3367   20.0867    7.1280 H   0  0  0  0  0  0  0  0  0  0  0  0
  -36.0809   20.4957    5.3845 H   0  0  0  0  0  0  0  0  0  0  0  0
  -35.4905   22.5436    6.0652 H   0  0  0  0  0  0  0  0  0  0  0  0
  -37.2518   22.7764    6.4878 H   0  0  0  0  0  0  0  0  0  0  0  0
  -35.3458   23.2745    8.2383 H   0  0  0  0  0  0  0  0  0  0  0  0
  -36.9380   22.4580    8.6860 H   0  0  0  0  0  0  0  0  0  0  0  0
  -35.9829   20.4956    9.1758 H   0  0  0  0  0  0  0  0  0  0  0  0
  -34.5723   20.8042    8.0273 H   0  0  0  0  0  0  0  0  0  0  0  0
  -34.8778   21.4421   10.9155 H   0  0  0  0  0  0  0  0  0  0  0  0
  -33.4373   20.9201    9.9217 H   0  0  0  0  0  0  0  0  0  0  0  0
  -34.6192   23.6545    9.5425 H   0  0  0  0  0  0  0  0  0  0  0  0
  -33.5005   23.2806   10.9467 H   0  0  0  0  0  0  0  0  0  0  0  0
  -31.7257   23.4755    9.6777 H   0  0  0  0  0  0  0  0  0  0  0  0
  -32.4416   22.2787    8.4784 H   0  0  0  0  0  0  0  0  0  0  0  0
  -33.7828   24.5776    7.8699 H   0  0  0  0  0  0  0  0  0  0  0  0
  -32.1221   25.1824    8.3079 H   0  0  0  0  0  0  0  0  0  0  0  0
  -32.9461   24.1242    5.8426 H   0  0  0  0  0  0  0  0  0  0  0  0
  -31.2479   24.4489    6.4314 H   0  0  0  0  0  0  0  0  0  0  0  0
  -31.0215   22.2850    5.7965 H   0  0  0  0  0  0  0  0  0  0  0  0
  -31.5960   22.0957    7.5412 H   0  0  0  0  0  0  0  0  0  0  0  0
  -33.1473   20.7375    6.8688 H   0  0  0  0  0  0  0  0  0  0  0  0
  -33.8513   22.1393    5.8968 H   0  0  0  0  0  0  0  0  0  0  0  0
  -33.6708   20.8260    4.1428 H   0  0  0  0  0  0  0  0  0  0  0  0
  -31.8800   21.1647    4.2796 H   0  0  0  0  0  0  0  0  0  0  0  0
  -32.9977   18.6660    4.1666 H   0  0  0  0  0  0  0  0  0  0  0  0
  -31.3878   19.0895    4.8955 H   0  0  0  0  0  0  0  0  0  0  0  0
  -33.5420   19.5109    6.7979 H   0  0  0  0  0  0  0  0  0  0  0  0
  -33.5340   17.8113    6.1447 H   0  0  0  0  0  0  0  0  0  0  0  0
  1  2  1  0
  2  3  1  0
  3  4  1  0
  4  5  1  0
  5  6  1  0
  6  7  1  0
  7  8  1  0
  8  9  1  0
  9 10  1  0
 10 11  1  0
 11 12  1  0
 12 13  1  0
 13 14  1  0
 14 15  1  0
 15 16  1  0
 16 17  1  0
 17 18  1  0
 18 19  2  0
 18 20  1  0
  1 21  1  0
  1 22  1  0
  1 23  1  0
  2 24  1  0
  2 25  1  0
  3 26  1  0
  3 27  1  0
  4 28  1  0
  4 29  1  0
  5 30  1  0
  5 31  1  0
  6 32  1  0
  6 33  1  0
  7 34  1  0
  7 35  1  0
  8 36  1  0
  8 37  1  0
  9 38  1  0
  9 39  1  0
 10 40  1  0
 10 41  1  0
 11 42  1  0
 11 43  1  0
 12 44  1  0
 12 45  1  0
 13 46  1  0
 13 47  1  0
 14 48  1  0
 14 49  1  0
 15 50  1  0
 15 51  1  0
 16 52  1  0
 16 53  1  0
 17 54  1  0
 17 55  1  0
M  CHG  1  20  -1
M  END
>  <meeko>  (18) 
{"is_sidechain": [false], "free_energy": -5.922, "intermolecular_energy": -11.58, "internal_energy": -2.124}

$$$$
stearate_Nlobe_run01
     RDKit          3D

 55 54  0  0  0  0  0  0  0  0999 V2000
  -34.2890   19.2880   11.7570 C   0  0  0  0  0  0  0  0  0  0  0  0
  -34.6910   20.5620   11.0290 C   0  0  0  0  0  0  0  0  0  0  0  0
  -34.3570   20.5440    9.5350 C   0  0  0  0  0  0  0  0  0  0  0  0
  -33.8110   19.1980    9.0530 C   0  0  0  0  0  0  0  0  0  0  0  0
  -33.9470   19.0570    7.5350 C   0  0  0  0  0  0  0  0  0  0  0  0
  -32.6220   19.2320    6.7870 C   0  0  0  0  0  0  0  0  0  0  0  0
  -32.4220   20.5850    6.0960 C   0  0  0  0  0  0  0  0  0  0  0  0
  -31.9140   21.7210    6.9910 C   0  0  0  0  0  0  0  0  0  0  0  0
  -32.0290   23.1010    6.3460 C   0  0  0  0  0  0  0  0  0  0  0  0
  -31.9470   24.2700    7.3350 C   0  0  0  0  0  0  0  0  0  0  0  0
  -33.2740   24.9950    7.5950 C   0  0  0  0  0  0  0  0  0  0  0  0
  -34.4640   24.3140    6.9120 C   0  0  0  0  0  0  0  0  0  0  0  0
  -35.5130   23.7860    7.8960 C   0  0  0  0  0  0  0  0  0  0  0  0
  -36.3640   22.6100    7.4050 C   0  0  0  0  0  0  0  0  0  0  0  0
  -35.8570   21.8980    6.1460 C   0  0  0  0  0  0  0  0  0  0  0  0
  -36.7450   20.7340    5.6990 C   0  0  0  0  0  0  0  0  0  0  0  0
  -37.7870   20.3650    6.7520 C   0  0  0  0  0  0  0  0  0  0  0  0
  -39.1930   20.6620    6.3070 C   0  0  0  0  0  0  0  0  0  0  0  0
  -39.5940   20.6750    5.1560 O   0  0  0  0  0  0  0  0  0  0  0  0
  -40.0320   20.9040    7.3300 O   0  0  0  0  0  0  0  0  0  0  0  0
  -34.3414   19.4542   12.8431 H   0  0  0  0  0  0  0  0  0  0  0  0
  -34.9740   18.4741   11.4771 H   0  0  0  0  0  0  0  0  0  0  0  0
  -33.2609   19.0146   11.4771 H   0  0  0  0  0  0  0  0  0  0  0  0
  -35.7766   20.6992   11.1413 H   0  0  0  0  0  0  0  0  0  0  0  0
  -34.1172   21.3858   11.4785 H   0  0  0  0  0  0  0  0  0  0  0  0
  -35.2727   20.7720    8.9697 H   0  0  0  0  0  0  0  0  0  0  0  0
  -33.5695   21.2937    9.3681 H   0  0  0  0  0  0  0  0  0  0  0  0
  -32.7482   19.1233    9.3265 H   0  0  0  0  0  0  0  0  0  0  0  0
  -34.3919   18.3953    9.5308 H   0  0  0  0  0  0  0  0  0  0  0  0
  -34.3438   18.0556    7.3119 H   0  0  0  0  0  0  0  0  0  0  0  0
  -34.6208   19.8566    7.1936 H   0  0  0  0  0  0  0  0  0  0  0  0
  -31.8050   19.0985    7.5113 H   0  0  0  0  0  0  0  0  0  0  0  0
  -32.6315   18.4828    5.9816 H   0  0  0  0  0  0  0  0  0  0  0  0
  -31.6947   20.4447    5.2828 H   0  0  0  0  0  0  0  0  0  0  0  0
  -33.4199   20.8968    5.7539 H   0  0  0  0  0  0  0  0  0  0  0  0
  -32.5014   21.7211    7.9211 H   0  0  0  0  0  0  0  0  0  0  0  0
  -30.8450   21.5366    7.1735 H   0  0  0  0  0  0  0  0  0  0  0  0
  -31.2127   23.2092    5.6166 H   0  0  0  0  0  0  0  0  0  0  0  0
  -33.0258   23.1498    5.8834 H   0  0  0  0  0  0  0  0  0  0  0  0
  -31.5780   23.8794    8.2948 H   0  0  0  0  0  0  0  0  0  0  0  0
  -31.2761   25.0123    6.8780 H   0  0  0  0  0  0  0  0  0  0  0  0
  -33.4562   25.0170    8.6796 H   0  0  0  0  0  0  0  0  0  0  0  0
  -33.1863   26.0084    7.1763 H   0  0  0  0  0  0  0  0  0  0  0  0
  -34.9475   25.0437    6.2459 H   0  0  0  0  0  0  0  0  0  0  0  0
  -34.0691   23.4462    6.3634 H   0  0  0  0  0  0  0  0  0  0  0  0
  -34.9875   23.4637    8.8070 H   0  0  0  0  0  0  0  0  0  0  0  0
  -36.2173   24.6165    8.0520 H   0  0  0  0  0  0  0  0  0  0  0  0
  -36.4133   21.8678    8.2154 H   0  0  0  0  0  0  0  0  0  0  0  0
  -37.3386   23.0407    7.1319 H   0  0  0  0  0  0  0  0  0  0  0  0
  -35.8078   22.6317    5.3279 H   0  0  0  0  0  0  0  0  0  0  0  0
  -34.8711   21.4756    6.3899 H   0  0  0  0  0  0  0  0  0  0  0  0
  -37.2640   21.0202    4.7723 H   0  0  0  0  0  0  0  0  0  0  0  0
  -36.0989   19.8577    5.5423 H   0  0  0  0  0  0  0  0  0  0  0  0
  -37.7055   19.2890    6.9657 H   0  0  0  0  0  0  0  0  0  0  0  0
  -37.5859   20.9739    7.6458 H   0  0  0  0  0  0  0  0  0  0  0  0
  1  2  1  0
  2  3  1  0
  3  4  1  0
  4  5  1  0
  5  6  1  0
  6  7  1  0
  7  8  1  0
  8  9  1  0
  9 10  1  0
 10 11  1  0
 11 12  1  0
 12 13  1  0
 13 14  1  0
 14 15  1  0
 15 16  1  0
 16 17  1  0
 17 18  1  0
 18 19  2  0
 18 20  1  0
  1 21  1  0
  1 22  1  0
  1 23  1  0
  2 24  1  0
  2 25  1  0
  3 26  1  0
  3 27  1  0
  4 28  1  0
  4 29  1  0
  5 30  1  0
  5 31  1  0
  6 32  1  0
  6 33  1  0
  7 34  1  0
  7 35  1  0
  8 36  1  0
  8 37  1  0
  9 38  1  0
  9 39  1  0
 10 40  1  0
 10 41  1  0
 11 42  1  0
 11 43  1  0
 12 44  1  0
 12 45  1  0
 13 46  1  0
 13 47  1  0
 14 48  1  0
 14 49  1  0
 15 50  1  0
 15 51  1  0
 16 52  1  0
 16 53  1  0
 17 54  1  0
 17 55  1  0
M  CHG  1  20  -1
M  END
>  <meeko>  (19) 
{"is_sidechain": [false], "free_energy": -5.88, "intermolecular_energy": -11.31, "internal_energy": -2.313}

$$$$
stearate_Nlobe_run01
     RDKit          3D

 55 54  0  0  0  0  0  0  0  0999 V2000
  -31.8970   24.5840    8.9250 C   0  0  0  0  0  0  0  0  0  0  0  0
  -32.5810   25.1120    7.6730 C   0  0  0  0  0  0  0  0  0  0  0  0
  -32.9130   24.0210    6.6520 C   0  0  0  0  0  0  0  0  0  0  0  0
  -32.4040   22.6350    7.0590 C   0  0  0  0  0  0  0  0  0  0  0  0
  -31.8520   21.8730    5.8520 C   0  0  0  0  0  0  0  0  0  0  0  0
  -32.9350   21.1670    5.0300 C   0  0  0  0  0  0  0  0  0  0  0  0
  -33.3930   19.8050    5.5620 C   0  0  0  0  0  0  0  0  0  0  0  0
  -32.3050   18.9460    6.2150 C   0  0  0  0  0  0  0  0  0  0  0  0
  -32.5450   18.6890    7.7020 C   0  0  0  0  0  0  0  0  0  0  0  0
  -33.9360   19.1010    8.1990 C   0  0  0  0  0  0  0  0  0  0  0  0
  -33.9590   19.7930    9.5670 C   0  0  0  0  0  0  0  0  0  0  0  0
  -35.1530   20.7380    9.7320 C   0  0  0  0  0  0  0  0  0  0  0  0
  -34.9590   22.0930    9.0430 C   0  0  0  0  0  0  0  0  0  0  0  0
  -36.0570   22.5110    8.0600 C   0  0  0  0  0  0  0  0  0  0  0  0
  -36.0400   21.8050    6.7000 C   0  0  0  0  0  0  0  0  0  0  0  0
  -37.4190   21.3210    6.2420 C   0  0  0  0  0  0  0  0  0  0  0  0
  -38.2620   20.7950    7.4020 C   0  0  0  0  0  0  0  0  0  0  0  0
  -39.6020   20.2770    6.9580 C   0  0  0  0  0  0  0  0  0  0  0  0
  -40.5660   20.0690    7.6740 O   0  0  0  0  0  0  0  0  0  0  0  0
  -39.6740   20.0680    5.6310 O   0  0  0  0  0  0  0  0  0  0  0  0
  -32.4078   24.9783    9.8159 H   0  0  0  0  0  0  0  0  0  0  0  0
  -31.9431   23.4850    8.9322 H   0  0  0  0  0  0  0  0  0  0  0  0
  -30.8455   24.9069    8.9322 H   0  0  0  0  0  0  0  0  0  0  0  0
  -33.5172   25.6071    7.9703 H   0  0  0  0  0  0  0  0  0  0  0  0
  -31.8779   25.8053    7.1883 H   0  0  0  0  0  0  0  0  0  0  0  0
  -34.0058   23.9716    6.5368 H   0  0  0  0  0  0  0  0  0  0  0  0
  -32.4087   24.2901    5.7122 H   0  0  0  0  0  0  0  0  0  0  0  0
  -31.6052   22.7511    7.8063 H   0  0  0  0  0  0  0  0  0  0  0  0
  -33.2455   22.0633    7.4773 H   0  0  0  0  0  0  0  0  0  0  0  0
  -31.3285   22.5867    5.1989 H   0  0  0  0  0  0  0  0  0  0  0  0
  -31.1797   21.0937    6.2402 H   0  0  0  0  0  0  0  0  0  0  0  0
  -33.8139   21.8274    4.9915 H   0  0  0  0  0  0  0  0  0  0  0  0
  -32.4824   20.9676    4.0475 H   0  0  0  0  0  0  0  0  0  0  0  0
  -34.1789   19.9818    6.3111 H   0  0  0  0  0  0  0  0  0  0  0  0
  -33.7339   19.2391    4.6825 H   0  0  0  0  0  0  0  0  0  0  0  0
  -32.2672   17.9772    5.6955 H   0  0  0  0  0  0  0  0  0  0  0  0
  -31.3590   19.5008    6.1301 H   0  0  0  0  0  0  0  0  0  0  0  0
  -32.4171   17.6128    7.8903 H   0  0  0  0  0  0  0  0  0  0  0  0
  -31.8195   19.3089    8.2491 H   0  0  0  0  0  0  0  0  0  0  0  0
  -34.3712   19.7907    7.4608 H   0  0  0  0  0  0  0  0  0  0  0  0
  -34.5076   18.1687    8.3175 H   0  0  0  0  0  0  0  0  0  0  0  0
  -34.0094   19.0223   10.3503 H   0  0  0  0  0  0  0  0  0  0  0  0
  -33.0435   20.3973    9.6488 H   0  0  0  0  0  0  0  0  0  0  0  0
  -36.0426   20.2534    9.3032 H   0  0  0  0  0  0  0  0  0  0  0  0
  -35.2638   20.9350   10.8085 H   0  0  0  0  0  0  0  0  0  0  0  0
  -34.8979   22.8629    9.8263 H   0  0  0  0  0  0  0  0  0  0  0  0
  -34.0450   21.9902    8.4397 H   0  0  0  0  0  0  0  0  0  0  0  0
  -37.0289   22.3077    8.5335 H   0  0  0  0  0  0  0  0  0  0  0  0
  -35.8767   23.5748    7.8461 H   0  0  0  0  0  0  0  0  0  0  0  0
  -35.6510   22.5077    5.9484 H   0  0  0  0  0  0  0  0  0  0  0  0
  -35.4051   20.9132    6.8079 H   0  0  0  0  0  0  0  0  0  0  0  0
  -37.9504   22.1609    5.7706 H   0  0  0  0  0  0  0  0  0  0  0  0
  -37.2675   20.4937    5.5331 H   0  0  0  0  0  0  0  0  0  0  0  0
  -37.7138   19.9774    7.8929 H   0  0  0  0  0  0  0  0  0  0  0  0
  -38.4418   21.6348    8.0894 H   0  0  0  0  0  0  0  0  0  0  0  0
  1  2  1  0
  2  3  1  0
  3  4  1  0
  4  5  1  0
  5  6  1  0
  6  7  1  0
  7  8  1  0
  8  9  1  0
  9 10  1  0
 10 11  1  0
 11 12  1  0
 12 13  1  0
 13 14  1  0
 14 15  1  0
 15 16  1  0
 16 17  1  0
 17 18  1  0
 18 19  2  0
 18 20  1  0
  1 21  1  0
  1 22  1  0
  1 23  1  0
  2 24  1  0
  2 25  1  0
  3 26  1  0
  3 27  1  0
  4 28  1  0
  4 29  1  0
  5 30  1  0
  5 31  1  0
  6 32  1  0
  6 33  1  0
  7 34  1  0
  7 35  1  0
  8 36  1  0
  8 37  1  0
  9 38  1  0
  9 39  1  0
 10 40  1  0
 10 41  1  0
 11 42  1  0
 11 43  1  0
 12 44  1  0
 12 45  1  0
 13 46  1  0
 13 47  1  0
 14 48  1  0
 14 49  1  0
 15 50  1  0
 15 51  1  0
 16 52  1  0
 16 53  1  0
 17 54  1  0
 17 55  1  0
M  CHG  1  20  -1
M  END
>  <meeko>  (20) 
{"is_sidechain": [false], "free_energy": -5.877, "intermolecular_energy": -11.231, "internal_energy": -2.385}

$$$$
