stearate_Nlobe_run02
     RDKit          3D

 55 54  0  0  0  0  0  0  0  0999 V2000
  -31.8460   24.5340    8.8490 C   0  0  0  0  0  0  0  0  0  0  0  0
  -32.2010   25.0830    7.4750 C   0  0  0  0  0  0  0  0  0  0  0  0
  -32.7650   24.0260    6.5220 C   0  0  0  0  0  0  0  0  0  0  0  0
  -32.0600   22.6720    6.6330 C   0  0  0  0  0  0  0  0  0  0  0  0
  -32.4830   21.7330    5.5000 C   0  0  0  0  0  0  0  0  0  0  0  0
  -32.4950   20.2560    5.9070 C   0  0  0  0  0  0  0  0  0  0  0  0
  -31.8010   19.9250    7.2320 C   0  0  0  0  0  0  0  0  0  0  0  0
  -32.4600   18.8290    8.0740 C   0  0  0  0  0  0  0  0  0  0  0  0
  -33.9230   19.1160    8.4070 C   0  0  0  0  0  0  0  0  0  0  0  0
  -34.1820   19.4520    9.8810 C   0  0  0  0  0  0  0  0  0  0  0  0
  -34.7770   20.8430   10.1360 C   0  0  0  0  0  0  0  0  0  0  0  0
  -34.4290   21.8460    9.0330 C   0  0  0  0  0  0  0  0  0  0  0  0
  -35.4900   22.9360    8.8420 C   0  0  0  0  0  0  0  0  0  0  0  0
  -36.2500   22.9070    7.5120 C   0  0  0  0  0  0  0  0  0  0  0  0
  -35.9150   21.7420    6.5750 C   0  0  0  0  0  0  0  0  0  0  0  0
  -37.1400   20.9380    6.1310 C   0  0  0  0  0  0  0  0  0  0  0  0
  -37.9790   20.4630    7.3150 C   0  0  0  0  0  0  0  0  0  0  0  0
  -39.4540   20.4610    7.0170 C   0  0  0  0  0  0  0  0  0  0  0  0
  -40.3430   20.7830    7.7860 O   0  0  0  0  0  0  0  0  0  0  0  0
  -39.7390   20.0770    5.7600 O   0  0  0  0  0  0  0  0  0  0  0  0
  -32.2690   25.1881    9.6257 H   0  0  0  0  0  0  0  0  0  0  0  0
  -32.2604   23.5208    8.9573 H   0  0  0  0  0  0  0  0  0  0  0  0
  -30.7520   24.4962    8.9573 H   0  0  0  0  0  0  0  0  0  0  0  0
  -32.9534   25.8755    7.6005 H   0  0  0  0  0  0  0  0  0  0  0  0
  -31.2697   25.4591    7.0264 H   0  0  0  0  0  0  0  0  0  0  0  0
  -33.8316   23.8839    6.7502 H   0  0  0  0  0  0  0  0  0  0  0  0
  -32.6053   24.3931    5.4974 H   0  0  0  0  0  0  0  0  0  0  0  0
  -30.9724   22.8285    6.5821 H   0  0  0  0  0  0  0  0  0  0  0  0
  -32.3410   22.2105    7.5911 H   0  0  0  0  0  0  0  0  0  0  0  0
  -33.4956   22.0133    5.1744 H   0  0  0  0  0  0  0  0  0  0  0  0
  -31.7424   21.8420    4.6940 H   0  0  0  0  0  0  0  0  0  0  0  0
  -33.5445   19.9361    5.9863 H   0  0  0  0  0  0  0  0  0  0  0  0
  -31.9241   19.7268    5.1298 H   0  0  0  0  0  0  0  0  0  0  0  0
  -30.7740   19.6037    7.0040 H   0  0  0  0  0  0  0  0  0  0  0  0
  -31.8592   20.8419    7.8369 H   0  0  0  0  0  0  0  0  0  0  0  0
  -32.4088   17.8825    7.5159 H   0  0  0  0  0  0  0  0  0  0  0  0
  -31.9138   18.7799    9.0276 H   0  0  0  0  0  0  0  0  0  0  0  0
  -34.2542   19.9688    7.7962 H   0  0  0  0  0  0  0  0  0  0  0  0
  -34.4813   18.1929    8.1921 H   0  0  0  0  0  0  0  0  0  0  0  0
  -34.8803   18.7035   10.2836 H   0  0  0  0  0  0  0  0  0  0  0  0
  -33.1990   19.4438   10.3746 H   0  0  0  0  0  0  0  0  0  0  0  0
  -35.8716   20.7519   10.1962 H   0  0  0  0  0  0  0  0  0  0  0  0
  -34.3478   21.2206   11.0758 H   0  0  0  0  0  0  0  0  0  0  0  0
  -33.4751   22.3296    9.2902 H   0  0  0  0  0  0  0  0  0  0  0  0
  -34.3697   21.2828    8.0900 H   0  0  0  0  0  0  0  0  0  0  0  0
  -36.2264   22.8348    9.6528 H   0  0  0  0  0  0  0  0  0  0  0  0
  -34.9410   23.8892    8.8494 H   0  0  0  0  0  0  0  0  0  0  0  0
  -37.3252   22.8583    7.7392 H   0  0  0  0  0  0  0  0  0  0  0  0
  -35.9455   23.8176    6.9753 H   0  0  0  0  0  0  0  0  0  0  0  0
  -35.4222   22.1475    5.6790 H   0  0  0  0  0  0  0  0  0  0  0  0
  -35.2651   21.0545    7.1362 H   0  0  0  0  0  0  0  0  0  0  0  0
  -37.7653   21.5726    5.4858 H   0  0  0  0  0  0  0  0  0  0  0  0
  -36.7824   20.0481    5.5922 H   0  0  0  0  0  0  0  0  0  0  0  0
  -37.6713   19.4398    7.5766 H   0  0  0  0  0  0  0  0  0  0  0  0
  -37.8085   21.1636    8.1457 H   0  0  0  0  0  0  0  0  0  0  0  0
  1  2  1  0
  2  3  1  0
  3  4  1  0
  4  5  1  0
  5  6  1  0
  6  7  1  0
  7  8  1  0
  8  9  1  0
  9 10  1  0
 10 11  1  0
 11 12  1  0
 12 13  1  0
 13 14  1  0
 14 15  1  0
 15 16  1  0
 16 17  1  0
 17 18  1  0
 18 19  2  0
 18 20  1  0
  1 21  1  0
  1 22  1  0
  1 23  1  0
  2 24  1  0
  2 25  1  0
  3 26  1  0
  3 27  1  0
  4 28  1  0
  4 29  1  0
  5 30  1  0
  5 31  1  0
  6 32  1  0
  6 33  1  0
  7 34  1  0
  7 35  1  0
  8 36  1  0
  8 37  1  0
  9 38  1  0
  9 39  1  0
 10 40  1  0
 10 41  1  0
 11 42  1  0
 11 43  1  0
 12 44  1  0
 12 45  1  0
 13 46  1  0
 13 47  1  0
 14 48  1  0
 14 49  1  0
 15 50  1  0
 15 51  1  0
 16 52  1  0
 16 53  1  0
 17 54  1  0
 17 55  1  0
M  CHG  1  20  -1
M  END
>  <meeko>  (1) 
{"is_sidechain": [false], "free_energy": -6.029, "intermolecular_energy": -11.668, "internal_energy": -2.71}

$$$$
stearate_Nlobe_run02
     RDKit          3D

 55 54  0  0  0  0  0  0  0  0999 V2000
  -34.2870   19.2800   11.5540 C   0  0  0  0  0  0  0  0  0  0  0  0
  -34.6480   20.4430   10.6420 C   0  0  0  0  0  0  0  0  0  0  0  0
  -34.0190   21.7720   11.0670 C   0  0  0  0  0  0  0  0  0  0  0  0
  -34.3860   22.9390   10.1470 C   0  0  0  0  0  0  0  0  0  0  0  0
  -35.1550   22.4520    8.9170 C   0  0  0  0  0  0  0  0  0  0  0  0
  -35.6150   23.5880    7.9970 C   0  0  0  0  0  0  0  0  0  0  0  0
  -34.6460   23.9660    6.8720 C   0  0  0  0  0  0  0  0  0  0  0  0
  -33.5500   24.9680    7.2450 C   0  0  0  0  0  0  0  0  0  0  0  0
  -32.1770   24.3250    7.4340 C   0  0  0  0  0  0  0  0  0  0  0  0
  -31.9900   23.0000    6.6840 C   0  0  0  0  0  0  0  0  0  0  0  0
  -31.6810   21.7880    7.5720 C   0  0  0  0  0  0  0  0  0  0  0  0
  -32.5210   20.5600    7.2100 C   0  0  0  0  0  0  0  0  0  0  0  0
  -33.1920   20.6620    5.8360 C   0  0  0  0  0  0  0  0  0  0  0  0
  -34.7040   20.4210    5.8060 C   0  0  0  0  0  0  0  0  0  0  0  0
  -35.4440   20.9640    4.5790 C   0  0  0  0  0  0  0  0  0  0  0  0
  -36.9180   20.5530    4.5200 C   0  0  0  0  0  0  0  0  0  0  0  0
  -37.5860   20.5990    5.8920 C   0  0  0  0  0  0  0  0  0  0  0  0
  -39.0860   20.6770    5.8050 C   0  0  0  0  0  0  0  0  0  0  0  0
  -39.7950   20.0430    5.0420 O   0  0  0  0  0  0  0  0  0  0  0  0
  -39.6250   21.5270    6.6970 O   0  0  0  0  0  0  0  0  0  0  0  0
  -34.3843   19.5935   12.6039 H   0  0  0  0  0  0  0  0  0  0  0  0
  -34.9656   18.4366   11.3587 H   0  0  0  0  0  0  0  0  0  0  0  0
  -33.2501   18.9691   11.3587 H   0  0  0  0  0  0  0  0  0  0  0  0
  -34.3057   20.2059    9.6238 H   0  0  0  0  0  0  0  0  0  0  0  0
  -35.7393   20.5699   10.6971 H   0  0  0  0  0  0  0  0  0  0  0  0
  -34.3605   22.0098   12.0852 H   0  0  0  0  0  0  0  0  0  0  0  0
  -32.9274   21.6468   11.0137 H   0  0  0  0  0  0  0  0  0  0  0  0
  -35.0128   23.6514   10.7034 H   0  0  0  0  0  0  0  0  0  0  0  0
  -33.4573   23.4220    9.8090 H   0  0  0  0  0  0  0  0  0  0  0  0
  -34.5018   21.7799    8.3411 H   0  0  0  0  0  0  0  0  0  0  0  0
  -36.0595   21.9424    9.2806 H   0  0  0  0  0  0  0  0  0  0  0  0
  -36.5666   23.2850    7.5358 H   0  0  0  0  0  0  0  0  0  0  0  0
  -35.6932   24.4791    8.6372 H   0  0  0  0  0  0  0  0  0  0  0  0
  -34.1565   23.0443    6.5243 H   0  0  0  0  0  0  0  0  0  0  0  0
  -35.2579   24.4642    6.1056 H   0  0  0  0  0  0  0  0  0  0  0  0
  -33.4762   25.7180    6.4437 H   0  0  0  0  0  0  0  0  0  0  0  0
  -33.8340   25.4151    8.2091 H   0  0  0  0  0  0  0  0  0  0  0  0
  -31.4136   25.0326    7.0782 H   0  0  0  0  0  0  0  0  0  0  0  0
  -32.0822   24.0956    8.5056 H   0  0  0  0  0  0  0  0  0  0  0  0
  -32.9161   22.7888    6.1292 H   0  0  0  0  0  0  0  0  0  0  0  0
  -31.1122   23.1363    6.0352 H   0  0  0  0  0  0  0  0  0  0  0  0
  -30.6171   21.5319    7.4600 H   0  0  0  0  0  0  0  0  0  0  0  0
  -31.9263   22.0644    8.6081 H   0  0  0  0  0  0  0  0  0  0  0  0
  -31.8655   19.6766    7.2127 H   0  0  0  0  0  0  0  0  0  0  0  0
  -33.3243   20.4856    7.9577 H   0  0  0  0  0  0  0  0  0  0  0  0
  -33.0048   21.6728    5.4446 H   0  0  0  0  0  0  0  0  0  0  0  0
  -32.7518   19.8555    5.2312 H   0  0  0  0  0  0  0  0  0  0  0  0
  -34.8731   19.3349    5.8482 H   0  0  0  0  0  0  0  0  0  0  0  0
  -35.1104   20.9722    6.6668 H   0  0  0  0  0  0  0  0  0  0  0  0
  -35.3899   22.0625    4.5983 H   0  0  0  0  0  0  0  0  0  0  0  0
  -34.9543   20.5363    3.6917 H   0  0  0  0  0  0  0  0  0  0  0  0
  -37.4500   21.2387    3.8441 H   0  0  0  0  0  0  0  0  0  0  0  0
  -36.9646   19.5157    4.1569 H   0  0  0  0  0  0  0  0  0  0  0  0
  -37.3125   19.6897    6.4473 H   0  0  0  0  0  0  0  0  0  0  0  0
  -37.2350   21.5081    6.4022 H   0  0  0  0  0  0  0  0  0  0  0  0
  1  2  1  0
  2  3  1  0
  3  4  1  0
  4  5  1  0
  5  6  1  0
  6  7  1  0
  7  8  1  0
  8  9  1  0
  9 10  1  0
 10 11  1  0
 11 12  1  0
 12 13  1  0
 13 14  1  0
 14 15  1  0
 15 16  1  0
 16 17  1  0
 17 18  1  0
 18 19  2  0
 18 20  1  0
  1 21  1  0
  1 22  1  0
  1 23  1  0
  2 24  1  0
  2 25  1  0
  3 26  1  0
  3 27  1  0
  4 28  1  0
  4 29  1  0
  5 30  1  0
  5 31  1  0
  6 32  1  0
  6 33  1  0
  7 34  1  0
  7 35  1  0
  8 36  1  0
  8 37  1  0
  9 38  1  0
  9 39  1  0
 10 40  1  0
 10 41  1  0
 11 42  1  0
 11 43  1  0
 12 44  1  0
 12 45  1  0
 13 46  1  0
 13 47  1  0
 14 48  1  0
 14 49  1  0
 15 50  1  0
 15 51  1  0
 16 52  1  0
 16 53  1  0
 17 54  1  0
 17 55  1  0
M  CHG  1  20  -1
M  END
>  <meeko>  (2) 
{"is_sidechain": [false], "free_energy": -5.987, "intermolecular_energy": -11.632, "internal_energy": -2.666}

$$$$
stearate_Nlobe_run02
     RDKit          3D

 55 54  0  0  0  0  0  0  0  0999 V2000
  -34.0810   22.6180   10.9150 C   0  0  0  0  0  0  0  0  0  0  0  0
  -34.3940   21.4640    9.9740 C   0  0  0  0  0  0  0  0  0  0  0  0
  -35.2720   21.8650    8.7860 C   0  0  0  0  0  0  0  0  0  0  0  0
  -35.3440   23.3780    8.5690 C   0  0  0  0  0  0  0  0  0  0  0  0
  -35.1560   23.7350    7.0930 C   0  0  0  0  0  0  0  0  0  0  0  0
  -33.9000   24.5710    6.8240 C   0  0  0  0  0  0  0  0  0  0  0  0
  -32.9780   24.7910    8.0280 C   0  0  0  0  0  0  0  0  0  0  0  0
  -31.8650   23.7550    8.2130 C   0  0  0  0  0  0  0  0  0  0  0  0
  -31.7210   22.8000    7.0290 C   0  0  0  0  0  0  0  0  0  0  0  0
  -31.7610   21.3140    7.4060 C   0  0  0  0  0  0  0  0  0  0  0  0
  -32.7360   20.4610    6.5840 C   0  0  0  0  0  0  0  0  0  0  0  0
  -33.1150   21.1150    5.2520 C   0  0  0  0  0  0  0  0  0  0  0  0
  -34.3510   20.4900    4.5960 C   0  0  0  0  0  0  0  0  0  0  0  0
  -35.6800   21.2100    4.8460 C   0  0  0  0  0  0  0  0  0  0  0  0
  -36.7450   20.4050    5.5990 C   0  0  0  0  0  0  0  0  0  0  0  0
  -37.9270   21.2500    6.0820 C   0  0  0  0  0  0  0  0  0  0  0  0
  -38.4400   20.7980    7.4480 C   0  0  0  0  0  0  0  0  0  0  0  0
  -39.9020   21.0910    7.6440 C   0  0  0  0  0  0  0  0  0  0  0  0
  -40.3830   22.1620    7.9710 O   0  0  0  0  0  0  0  0  0  0  0  0
  -40.6920   20.0300    7.3950 O   0  0  0  0  0  0  0  0  0  0  0  0
  -34.1735   22.2771   11.9567 H   0  0  0  0  0  0  0  0  0  0  0  0
  -33.0548   22.9705   10.7343 H   0  0  0  0  0  0  0  0  0  0  0  0
  -34.7885   23.4407   10.7343 H   0  0  0  0  0  0  0  0  0  0  0  0
  -33.4455   21.0639    9.5864 H   0  0  0  0  0  0  0  0  0  0  0  0
  -34.9562   20.7173   10.5540 H   0  0  0  0  0  0  0  0  0  0  0  0
  -34.8620   21.4012    7.8768 H   0  0  0  0  0  0  0  0  0  0  0  0
  -36.2930   21.5186    9.0043 H   0  0  0  0  0  0  0  0  0  0  0  0
  -36.3265   23.7421    8.9039 H   0  0  0  0  0  0  0  0  0  0  0  0
  -34.5370   23.8516    9.1474 H   0  0  0  0  0  0  0  0  0  0  0  0
  -35.0841   22.8018    6.5150 H   0  0  0  0  0  0  0  0  0  0  0  0
  -36.0217   24.3440    6.7935 H   0  0  0  0  0  0  0  0  0  0  0  0
  -33.3177   24.0638    6.0406 H   0  0  0  0  0  0  0  0  0  0  0  0
  -34.2604   25.5695    6.5358 H   0  0  0  0  0  0  0  0  0  0  0  0
  -32.5053   25.7778    7.9153 H   0  0  0  0  0  0  0  0  0  0  0  0
  -33.6202   24.7016    8.9166 H   0  0  0  0  0  0  0  0  0  0  0  0
  -30.9122   24.2876    8.3491 H   0  0  0  0  0  0  0  0  0  0  0  0
  -32.1306   23.1466    9.0901 H   0  0  0  0  0  0  0  0  0  0  0  0
  -32.5423   22.9986    6.3248 H   0  0  0  0  0  0  0  0  0  0  0  0
  -30.7284   22.9870    6.5934 H   0  0  0  0  0  0  0  0  0  0  0  0
  -30.7503   20.9010    7.2722 H   0  0  0  0  0  0  0  0  0  0  0  0
  -32.1172   21.2708    8.4458 H   0  0  0  0  0  0  0  0  0  0  0  0
  -32.2649   19.4887    6.3772 H   0  0  0  0  0  0  0  0  0  0  0  0
  -33.6580   20.3491    7.1735 H   0  0  0  0  0  0  0  0  0  0  0  0
  -33.3176   22.1810    5.4323 H   0  0  0  0  0  0  0  0  0  0  0  0
  -32.2705   20.9624    4.5639 H   0  0  0  0  0  0  0  0  0  0  0  0
  -34.1800   20.4666    3.5096 H   0  0  0  0  0  0  0  0  0  0  0  0
  -34.4606   19.4967    5.0557 H   0  0  0  0  0  0  0  0  0  0  0  0
  -35.4673   22.1173    5.4304 H   0  0  0  0  0  0  0  0  0  0  0  0
  -36.1040   21.4073    3.8504 H   0  0  0  0  0  0  0  0  0  0  0  0
  -37.1286   19.6228    4.9274 H   0  0  0  0  0  0  0  0  0  0  0  0
  -36.2602   19.9884    6.4942 H   0  0  0  0  0  0  0  0  0  0  0  0
  -37.6060   22.2997    6.1538 H   0  0  0  0  0  0  0  0  0  0  0  0
  -38.7459   21.1302    5.3574 H   0  0  0  0  0  0  0  0  0  0  0  0
  -38.2826   19.7134    7.5419 H   0  0  0  0  0  0  0  0  0  0  0  0
  -37.8831   21.3573    8.2142 H   0  0  0  0  0  0  0  0  0  0  0  0
  1  2  1  0
  2  3  1  0
  3  4  1  0
  4  5  1  0
  5  6  1  0
  6  7  1  0
  7  8  1  0
  8  9  1  0
  9 10  1  0
 10 11  1  0
 11 12  1  0
 12 13  1  0
 13 14  1  0
 14 15  1  0
 15 16  1  0
 16 17  1  0
 17 18  1  0
 18 19  2  0
 18 20  1  0
  1 21  1  0
  1 22  1  0
  1 23  1  0
  2 24  1  0
  2 25  1  0
  3 26  1  0
  3 27  1  0
  4 28  1  0
  4 29  1  0
  5 30  1  0
  5 31  1  0
  6 32  1  0
  6 33  1  0
  7 34  1  0
  7 35  1  0
  8 36  1  0
  8 37  1  0
  9 38  1  0
  9 39  1  0
 10 40  1  0
 10 41  1  0
 11 42  1  0
 11 43  1  0
 12 44  1  0
 12 45  1  0
 13 46  1  0
 13 47  1  0
 14 48  1  0
 14 49  1  0
 15 50  1  0
 15 51  1  0
 16 52  1  0
 16 53  1  0
 17 54  1  0
 17 55  1  0
M  CHG  1  20  -1
M  END
>  <meeko>  (3) 
{"is_sidechain": [false], "free_energy": -5.985, "intermolecular_energy": -11.349, "internal_energy": -2.945}

$$$$
stearate_Nlobe_run02
     RDKit          3D

 55 54  0  0  0  0  0  0  0  0999 V2000
  -36.8110   20.6050    4.2830 C   0  0  0  0  0  0  0  0  0  0  0  0
  -37.9730   20.2540    5.2010 C   0  0  0  0  0  0  0  0  0  0  0  0
  -37.8050   20.7780    6.6290 C   0  0  0  0  0  0  0  0  0  0  0  0
  -36.4120   20.5210    7.2090 C   0  0  0  0  0  0  0  0  0  0  0  0
  -35.9040   21.7370    7.9870 C   0  0  0  0  0  0  0  0  0  0  0  0
  -35.8530   23.0180    7.1490 C   0  0  0  0  0  0  0  0  0  0  0  0
  -35.0880   24.1900    7.7710 C   0  0  0  0  0  0  0  0  0  0  0  0
  -33.8860   24.7010    6.9700 C   0  0  0  0  0  0  0  0  0  0  0  0
  -32.7560   25.2380    7.8460 C   0  0  0  0  0  0  0  0  0  0  0  0
  -31.7570   24.1730    8.3140 C   0  0  0  0  0  0  0  0  0  0  0  0
  -32.2590   22.7260    8.2220 C   0  0  0  0  0  0  0  0  0  0  0  0
  -31.5030   21.9030    7.1750 C   0  0  0  0  0  0  0  0  0  0  0  0
  -32.0190   22.1100    5.7470 C   0  0  0  0  0  0  0  0  0  0  0  0
  -33.2630   21.3040    5.3580 C   0  0  0  0  0  0  0  0  0  0  0  0
  -33.0460   20.2020    4.3160 C   0  0  0  0  0  0  0  0  0  0  0  0
  -32.3580   18.9540    4.8760 C   0  0  0  0  0  0  0  0  0  0  0  0
  -32.8730   18.5850    6.2650 C   0  0  0  0  0  0  0  0  0  0  0  0
  -31.7620   18.2870    7.2350 C   0  0  0  0  0  0  0  0  0  0  0  0
  -30.6740   17.8130    6.9580 O   0  0  0  0  0  0  0  0  0  0  0  0
  -32.0630   18.6230    8.5030 O   0  0  0  0  0  0  0  0  0  0  0  0
  -35.9322   20.8705    4.8890 H   0  0  0  0  0  0  0  0  0  0  0  0
  -36.5708   19.7393    3.6482 H   0  0  0  0  0  0  0  0  0  0  0  0
  -37.0902   21.4589    3.6482 H   0  0  0  0  0  0  0  0  0  0  0  0
  -38.8926   20.6848    4.7783 H   0  0  0  0  0  0  0  0  0  0  0  0
  -38.0154   19.1566    5.2628 H   0  0  0  0  0  0  0  0  0  0  0  0
  -37.9873   21.8628    6.6264 H   0  0  0  0  0  0  0  0  0  0  0  0
  -38.5254   20.2378    7.2608 H   0  0  0  0  0  0  0  0  0  0  0  0
  -36.4594   19.6557    7.8865 H   0  0  0  0  0  0  0  0  0  0  0  0
  -35.7190   20.3249    6.3775 H   0  0  0  0  0  0  0  0  0  0  0  0
  -36.5729   21.9072    8.8435 H   0  0  0  0  0  0  0  0  0  0  0  0
  -34.8738   21.5138    8.3016 H   0  0  0  0  0  0  0  0  0  0  0  0
  -35.3752   22.7745    6.1886 H   0  0  0  0  0  0  0  0  0  0  0  0
  -36.8955   23.3566    7.0562 H   0  0  0  0  0  0  0  0  0  0  0  0
  -35.7923   25.0261    7.8933 H   0  0  0  0  0  0  0  0  0  0  0  0
  -34.6767   23.8099    8.7178 H   0  0  0  0  0  0  0  0  0  0  0  0
  -33.4930   23.8714    6.3640 H   0  0  0  0  0  0  0  0  0  0  0  0
  -34.2413   25.5374    6.3502 H   0  0  0  0  0  0  0  0  0  0  0  0
  -32.2056   25.9969    7.2706 H   0  0  0  0  0  0  0  0  0  0  0  0
  -33.2278   25.6459    8.7521 H   0  0  0  0  0  0  0  0  0  0  0  0
  -30.8515   24.2597    7.6955 H   0  0  0  0  0  0  0  0  0  0  0  0
  -31.5780   24.3683    9.3816 H   0  0  0  0  0  0  0  0  0  0  0  0
  -32.1331   22.2468    9.2041 H   0  0  0  0  0  0  0  0  0  0  0  0
  -33.3156   22.7599    7.9180 H   0  0  0  0  0  0  0  0  0  0  0  0
  -30.4415   22.1895    7.2068 H   0  0  0  0  0  0  0  0  0  0  0  0
  -31.6560   20.8426    7.4242 H   0  0  0  0  0  0  0  0  0  0  0  0
  -32.2584   23.1769    5.6272 H   0  0  0  0  0  0  0  0  0  0  0  0
  -31.2154   21.7516    5.0868 H   0  0  0  0  0  0  0  0  0  0  0  0
  -33.6583   20.8327    6.2699 H   0  0  0  0  0  0  0  0  0  0  0  0
  -33.9511   22.0243    4.8914 H   0  0  0  0  0  0  0  0  0  0  0  0
  -34.0260   19.9071    3.9128 H   0  0  0  0  0  0  0  0  0  0  0  0
  -32.3821   20.6161    3.5428 H   0  0  0  0  0  0  0  0  0  0  0  0
  -32.5437   18.1111    4.1940 H   0  0  0  0  0  0  0  0  0  0  0  0
  -31.2830   19.1710    4.9614 H   0  0  0  0  0  0  0  0  0  0  0  0
  -33.4654   19.4255    6.6556 H   0  0  0  0  0  0  0  0  0  0  0  0
  -33.4795   17.6729    6.1635 H   0  0  0  0  0  0  0  0  0  0  0  0
  1  2  1  0
  2  3  1  0
  3  4  1  0
  4  5  1  0
  5  6  1  0
  6  7  1  0
  7  8  1  0
  8  9  1  0
  9 10  1  0
 10 11  1  0
 11 12  1  0
 12 13  1  0
 13 14  1  0
 14 15  1  0
 15 16  1  0
 16 17  1  0
 17 18  1  0
 18 19  2  0
 18 20  1  0
  1 21  1  0
  1 22  1  0
  1 23  1  0
  2 24  1  0
  2 25  1  0
  3 26  1  0
  3 27  1  0
  4 28  1  0
  4 29  1  0
  5 30  1  0
  5 31  1  0
  6 32  1  0
  6 33  1  0
  7 34  1  0
  7 35  1  0
  8 36  1  0
  8 37  1  0
  9 38  1  0
  9 39  1  0
 10 40  1  0
 10 41  1  0
 11 42  1  0
 11 43  1  0
 12 44  1  0
 12 45  1  0
 13 46  1  0
 13 47  1  0
 14 48  1  0
 14 49  1  0
 15 50  1  0
 15 51  1  0
 16 52  1  0
 16 53  1  0
 17 54  1  0
 17 55  1  0
M  CHG  1  20  -1
M  END
>  <meeko>  (4) 
{"is_sidechain": [false], "free_energy": -5.967, "intermolecular_energy": -12.165, "internal_energy": -2.094}

$$$$
stearate_Nlobe_run02
     RDKit          3D

 55 54  0  0  0  0  0  0  0  0999 V2000
  -32.5900   25.0210    7.7600 C   0  0  0  0  0  0  0  0  0  0  0  0
  -33.9210   24.4240    7.3280 C   0  0  0  0  0  0  0  0  0  0  0  0
  -34.5460   23.5010    8.3780 C   0  0  0  0  0  0  0  0  0  0  0  0
  -33.5380   22.9820    9.4060 C   0  0  0  0  0  0  0  0  0  0  0  0
  -34.2340   22.1790   10.5070 C   0  0  0  0  0  0  0  0  0  0  0  0
  -34.9710   20.9420    9.9840 C   0  0  0  0  0  0  0  0  0  0  0  0
  -34.1190   19.6780    9.8260 C   0  0  0  0  0  0  0  0  0  0  0  0
  -34.0370   19.1020    8.4090 C   0  0  0  0  0  0  0  0  0  0  0  0
  -32.6150   18.7540    7.9750 C   0  0  0  0  0  0  0  0  0  0  0  0
  -32.1660   19.4330    6.6750 C   0  0  0  0  0  0  0  0  0  0  0  0
  -32.1550   20.9670    6.7130 C   0  0  0  0  0  0  0  0  0  0  0  0
  -32.7760   21.5940    5.4600 C   0  0  0  0  0  0  0  0  0  0  0  0
  -33.4540   20.5750    4.5390 C   0  0  0  0  0  0  0  0  0  0  0  0
  -34.9860   20.5720    4.5540 C   0  0  0  0  0  0  0  0  0  0  0  0
  -35.6470   21.5500    5.5300 C   0  0  0  0  0  0  0  0  0  0  0  0
  -36.5020   20.8670    6.6020 C   0  0  0  0  0  0  0  0  0  0  0  0
  -37.5900   21.7890    7.1480 C   0  0  0  0  0  0  0  0  0  0  0  0
  -38.9740   21.3460    6.7600 C   0  0  0  0  0  0  0  0  0  0  0  0
  -40.0040   21.9730    6.9340 O   0  0  0  0  0  0  0  0  0  0  0  0
  -38.9940   20.1470    6.1500 O   0  0  0  0  0  0  0  0  0  0  0  0
  -32.5379   25.0444    8.8585 H   0  0  0  0  0  0  0  0  0  0  0  0
  -31.7673   24.4057    7.3669 H   0  0  0  0  0  0  0  0  0  0  0  0
  -32.5024   26.0446    7.3669 H   0  0  0  0  0  0  0  0  0  0  0  0
  -34.6225   25.2469    7.1260 H   0  0  0  0  0  0  0  0  0  0  0  0
  -33.7266   23.8127    6.4344 H   0  0  0  0  0  0  0  0  0  0  0  0
  -35.3311   24.0586    8.9098 H   0  0  0  0  0  0  0  0  0  0  0  0
  -34.9469   22.6262    7.8450 H   0  0  0  0  0  0  0  0  0  0  0  0
  -32.8076   22.3355    8.8975 H   0  0  0  0  0  0  0  0  0  0  0  0
  -33.0365   23.8449    9.8684 H   0  0  0  0  0  0  0  0  0  0  0  0
  -33.4750   21.8518   11.2329 H   0  0  0  0  0  0  0  0  0  0  0  0
  -34.9879   22.8379   10.9625 H   0  0  0  0  0  0  0  0  0  0  0  0
  -35.7876   20.7137   10.6848 H   0  0  0  0  0  0  0  0  0  0  0  0
  -35.3120   21.2022    8.9711 H   0  0  0  0  0  0  0  0  0  0  0  0
  -33.0963   19.9174   10.1527 H   0  0  0  0  0  0  0  0  0  0  0  0
  -34.6139   18.9063   10.4339 H   0  0  0  0  0  0  0  0  0  0  0  0
  -34.6470   18.1875    8.3689 H   0  0  0  0  0  0  0  0  0  0  0  0
  -34.4043   19.8786    7.7220 H   0  0  0  0  0  0  0  0  0  0  0  0
  -31.9263   19.0573    8.7773 H   0  0  0  0  0  0  0  0  0  0  0  0
  -32.6007   17.6707    7.7849 H   0  0  0  0  0  0  0  0  0  0  0  0
  -31.1461   19.0903    6.4460 H   0  0  0  0  0  0  0  0  0  0  0  0
  -32.9046   19.1504    5.9104 H   0  0  0  0  0  0  0  0  0  0  0  0
  -32.7242   21.3013    7.5929 H   0  0  0  0  0  0  0  0  0  0  0  0
  -31.1048   21.2907    6.7609 H   0  0  0  0  0  0  0  0  0  0  0  0
  -33.5279   22.3320    5.7761 H   0  0  0  0  0  0  0  0  0  0  0  0
  -31.9563   22.0526    4.8874 H   0  0  0  0  0  0  0  0  0  0  0  0
  -33.1278   20.7827    3.5092 H   0  0  0  0  0  0  0  0  0  0  0  0
  -33.1516   19.5869    4.9160 H   0  0  0  0  0  0  0  0  0  0  0  0
  -35.3335   20.8207    3.5404 H   0  0  0  0  0  0  0  0  0  0  0  0
  -35.2785   19.5678    4.8947 H   0  0  0  0  0  0  0  0  0  0  0  0
  -34.8565   22.1271    6.0320 H   0  0  0  0  0  0  0  0  0  0  0  0
  -36.3212   22.1874    4.9391 H   0  0  0  0  0  0  0  0  0  0  0  0
  -36.9788   19.9788    6.1617 H   0  0  0  0  0  0  0  0  0  0  0  0
  -35.8405   20.5944    7.4376 H   0  0  0  0  0  0  0  0  0  0  0  0
  -37.5201   21.8045    8.2457 H   0  0  0  0  0  0  0  0  0  0  0  0
  -37.4272   22.7875    6.7162 H   0  0  0  0  0  0  0  0  0  0  0  0
  1  2  1  0
  2  3  1  0
  3  4  1  0
  4  5  1  0
  5  6  1  0
  6  7  1  0
  7  8  1  0
  8  9  1  0
  9 10  1  0
 10 11  1  0
 11 12  1  0
 12 13  1  0
 13 14  1  0
 14 15  1  0
 15 16  1  0
 16 17  1  0
 17 18  1  0
 18 19  2  0
 18 20  1  0
  1 21  1  0
  1 22  1  0
  1 23  1  0
  2 24  1  0
  2 25  1  0
  3 26  1  0
  3 27  1  0
  4 28  1  0
  4 29  1  0
  5 30  1  0
  5 31  1  0
  6 32  1  0
  6 33  1  0
  7 34  1  0
  7 35  1  0
  8 36  1  0
  8 37  1  0
  9 38  1  0
  9 39  1  0
 10 40  1  0
 10 41  1  0
 11 42  1  0
 11 43  1  0
 12 44  1  0
 12 45  1  0
 13 46  1  0
 13 47  1  0
 14 48  1  0
 14 49  1  0
 15 50  1  0
 15 51  1  0
 16 52  1  0
 16 53  1  0
 17 54  1  0
 17 55  1  0
M  CHG  1  20  -1
M  END
>  <meeko>  (5) 
{"is_sidechain": [false], "free_energy": -5.963, "intermolecular_energy": -11.403, "internal_energy": -2.848}

$$$$
stearate_Nlobe_run02
     RDKit          3D

 55 54  0  0  0  0  0  0  0  0999 V2000
  -37.0820   20.4490    4.5660 C   0  0  0  0  0  0  0  0  0  0  0  0
  -38.1740   20.3570    5.6210 C   0  0  0  0  0  0  0  0  0  0  0  0
  -37.8020   21.0280    6.9460 C   0  0  0  0  0  0  0  0  0  0  0  0
  -36.6250   21.9990    6.8240 C   0  0  0  0  0  0  0  0  0  0  0  0
  -36.8400   23.2410    7.6920 C   0  0  0  0  0  0  0  0  0  0  0  0
  -35.6900   24.2500    7.6070 C   0  0  0  0  0  0  0  0  0  0  0  0
  -34.4260   23.7580    6.8950 C   0  0  0  0  0  0  0  0  0  0  0  0
  -33.1670   24.6040    7.1120 C   0  0  0  0  0  0  0  0  0  0  0  0
  -32.5850   24.4770    8.5190 C   0  0  0  0  0  0  0  0  0  0  0  0
  -32.6390   23.0590    9.1000 C   0  0  0  0  0  0  0  0  0  0  0  0
  -33.5510   22.8910   10.3220 C   0  0  0  0  0  0  0  0  0  0  0  0
  -34.6800   21.8830   10.0830 C   0  0  0  0  0  0  0  0  0  0  0  0
  -34.3630   20.4770   10.6050 C   0  0  0  0  0  0  0  0  0  0  0  0
  -33.9880   19.4360    9.5460 C   0  0  0  0  0  0  0  0  0  0  0  0
  -34.3080   19.8130    8.0960 C   0  0  0  0  0  0  0  0  0  0  0  0
  -33.0710   19.9170    7.2000 C   0  0  0  0  0  0  0  0  0  0  0  0
  -33.4000   19.6720    5.7290 C   0  0  0  0  0  0  0  0  0  0  0  0
  -33.1820   20.8910    4.8750 C   0  0  0  0  0  0  0  0  0  0  0  0
  -33.7900   21.1730    3.8570 O   0  0  0  0  0  0  0  0  0  0  0  0
  -32.2280   21.7090    5.3550 O   0  0  0  0  0  0  0  0  0  0  0  0
  -36.1021   20.5316    5.0588 H   0  0  0  0  0  0  0  0  0  0  0  0
  -37.1017   19.5460    3.9381 H   0  0  0  0  0  0  0  0  0  0  0  0
  -37.2525   21.3360    3.9381 H   0  0  0  0  0  0  0  0  0  0  0  0
  -39.0797   20.8417    5.2276 H   0  0  0  0  0  0  0  0  0  0  0  0
  -38.3303   19.2888    5.8322 H   0  0  0  0  0  0  0  0  0  0  0  0
  -38.6769   21.5844    7.3132 H   0  0  0  0  0  0  0  0  0  0  0  0
  -37.4961   20.2312    7.6399 H   0  0  0  0  0  0  0  0  0  0  0  0
  -35.7050   21.4901    7.1474 H   0  0  0  0  0  0  0  0  0  0  0  0
  -36.5435   22.3175    5.7743 H   0  0  0  0  0  0  0  0  0  0  0  0
  -37.7651   23.7386    7.3655 H   0  0  0  0  0  0  0  0  0  0  0  0
  -36.8968   22.9010    8.7366 H   0  0  0  0  0  0  0  0  0  0  0  0
  -36.0573   25.1366    7.0694 H   0  0  0  0  0  0  0  0  0  0  0  0
  -35.3899   24.4509    8.6460 H   0  0  0  0  0  0  0  0  0  0  0  0
  -34.2134   22.7389    7.2503 H   0  0  0  0  0  0  0  0  0  0  0  0
  -34.6458   23.8195    5.8189 H   0  0  0  0  0  0  0  0  0  0  0  0
  -32.4028   24.2837    6.3885 H   0  0  0  0  0  0  0  0  0  0  0  0
  -33.4555   25.6565    6.9740 H   0  0  0  0  0  0  0  0  0  0  0  0
  -31.5327   24.7958    8.4863 H   0  0  0  0  0  0  0  0  0  0  0  0
  -33.2037   25.1087    9.1734 H   0  0  0  0  0  0  0  0  0  0  0  0
  -32.9975   22.3810    8.3114 H   0  0  0  0  0  0  0  0  0  0  0  0
  -31.6198   22.8300    9.4445 H   0  0  0  0  0  0  0  0  0  0  0  0
  -32.9427   22.5435   11.1700 H   0  0  0  0  0  0  0  0  0  0  0  0
  -34.0149   23.8671   10.5271 H   0  0  0  0  0  0  0  0  0  0  0  0
  -35.5855   22.2472   10.5904 H   0  0  0  0  0  0  0  0  0  0  0  0
  -34.8169   21.8015    8.9946 H   0  0  0  0  0  0  0  0  0  0  0  0
  -33.5207   20.5609   11.3075 H   0  0  0  0  0  0  0  0  0  0  0  0
  -35.2954   20.1130   11.0613 H   0  0  0  0  0  0  0  0  0  0  0  0
  -32.9048   19.2578    9.6170 H   0  0  0  0  0  0  0  0  0  0  0  0
  -34.6031   18.5512    9.7667 H   0  0  0  0  0  0  0  0  0  0  0  0
  -34.9767   19.0464    7.6773 H   0  0  0  0  0  0  0  0  0  0  0  0
  -34.7737   20.8093    8.1181 H   0  0  0  0  0  0  0  0  0  0  0  0
  -32.6425   20.9248    7.3038 H   0  0  0  0  0  0  0  0  0  0  0  0
  -32.3576   19.1429    7.5192 H   0  0  0  0  0  0  0  0  0  0  0  0
  -32.7580   18.8609    5.3551 H   0  0  0  0  0  0  0  0  0  0  0  0
  -34.4661   19.4084    5.6662 H   0  0  0  0  0  0  0  0  0  0  0  0
  1  2  1  0
  2  3  1  0
  3  4  1  0
  4  5  1  0
  5  6  1  0
  6  7  1  0
  7  8  1  0
  8  9  1  0
  9 10  1  0
 10 11  1  0
 11 12  1  0
 12 13  1  0
 13 14  1  0
 14 15  1  0
 15 16  1  0
 16 17  1  0
 17 18  1  0
 18 19  2  0
 18 20  1  0
  1 21  1  0
  1 22  1  0
  1 23  1  0
  2 24  1  0
  2 25  1  0
  3 26  1  0
  3 27  1  0
  4 28  1  0
  4 29  1  0
  5 30  1  0
  5 31  1  0
  6 32  1  0
  6 33  1  0
  7 34  1  0
  7 35  1  0
  8 36  1  0
  8 37  1  0
  9 38  1  0
  9 39  1  0
 10 40  1  0
 10 41  1  0
 11 42  1  0
 11 43  1  0
 12 44  1  0
 12 45  1  0
 13 46  1  0
 13 47  1  0
 14 48  1  0
 14 49  1  0
 15 50  1  0
 15 51  1  0
 16 52  1  0
 16 53  1  0
 17 54  1  0
 17 55  1  0
M  CHG  1  20  -1
M  END
>  <meeko>  (6) 
{"is_sidechain": [false], "free_energy": -5.916, "intermolecular_energy": -11.705, "internal_energy": -2.455}

$$$$
stearate_Nlobe_run02
     RDKit          3D

 55 54  0  0  0  0  0  0  0  0999 V2000
  -32.6540   21.0760    5.1010 C   0  0  0  0  0  0  0  0  0  0  0  0
  -32.4880   20.5600    6.5230 C   0  0  0  0  0  0  0  0  0  0  0  0
  -33.3250   19.3140    6.8220 C   0  0  0  0  0  0  0  0  0  0  0  0
  -33.5540   19.0830    8.3180 C   0  0  0  0  0  0  0  0  0  0  0  0
  -34.6440   20.0100    8.8610 C   0  0  0  0  0  0  0  0  0  0  0  0
  -34.2780   20.6610   10.1990 C   0  0  0  0  0  0  0  0  0  0  0  0
  -34.5560   22.1640   10.3050 C   0  0  0  0  0  0  0  0  0  0  0  0
  -33.3210   23.0630   10.4180 C   0  0  0  0  0  0  0  0  0  0  0  0
  -32.5190   23.1600    9.1220 C   0  0  0  0  0  0  0  0  0  0  0  0
  -32.1910   24.5930    8.6860 C   0  0  0  0  0  0  0  0  0  0  0  0
  -32.9850   25.1020    7.4760 C   0  0  0  0  0  0  0  0  0  0  0  0
  -33.9740   24.0640    6.9370 C   0  0  0  0  0  0  0  0  0  0  0  0
  -35.3950   24.2330    7.4850 C   0  0  0  0  0  0  0  0  0  0  0  0
  -36.3020   23.0010    7.3920 C   0  0  0  0  0  0  0  0  0  0  0  0
  -35.9420   21.9870    6.3020 C   0  0  0  0  0  0  0  0  0  0  0  0
  -37.0790   21.0190    5.9640 C   0  0  0  0  0  0  0  0  0  0  0  0
  -37.9040   20.6450    7.1940 C   0  0  0  0  0  0  0  0  0  0  0  0
  -39.3290   20.3040    6.8550 C   0  0  0  0  0  0  0  0  0  0  0  0
  -39.7600   20.0380    5.7460 O   0  0  0  0  0  0  0  0  0  0  0  0
  -40.1390   20.2880    7.9290 O   0  0  0  0  0  0  0  0  0  0  0  0
  -32.9908   22.1228    5.1278 H   0  0  0  0  0  0  0  0  0  0  0  0
  -31.6906   21.0141    4.5737 H   0  0  0  0  0  0  0  0  0  0  0  0
  -33.4006   20.4640    4.5737 H   0  0  0  0  0  0  0  0  0  0  0  0
  -31.4278   20.3138    6.6825 H   0  0  0  0  0  0  0  0  0  0  0  0
  -32.8380   21.3546    7.1984 H   0  0  0  0  0  0  0  0  0  0  0  0
  -34.3036   19.4249    6.3320 H   0  0  0  0  0  0  0  0  0  0  0  0
  -32.7662   18.4468    6.4402 H   0  0  0  0  0  0  0  0  0  0  0  0
  -33.8595   18.0383    8.4770 H   0  0  0  0  0  0  0  0  0  0  0  0
  -32.6163   19.2985    8.8511 H   0  0  0  0  0  0  0  0  0  0  0  0
  -34.8240   20.8061    8.1235 H   0  0  0  0  0  0  0  0  0  0  0  0
  -35.5384   19.3934    9.0337 H   0  0  0  0  0  0  0  0  0  0  0  0
  -34.8517   20.1547   10.9893 H   0  0  0  0  0  0  0  0  0  0  0  0
  -33.1881   20.5501   10.2980 H   0  0  0  0  0  0  0  0  0  0  0  0
  -35.1142   22.4683    9.4073 H   0  0  0  0  0  0  0  0  0  0  0  0
  -35.1120   22.2999   11.2444 H   0  0  0  0  0  0  0  0  0  0  0  0
  -33.6505   24.0738   10.7003 H   0  0  0  0  0  0  0  0  0  0  0  0
  -32.6611   22.6135   11.1746 H   0  0  0  0  0  0  0  0  0  0  0  0
  -31.5722   22.6177    9.2619 H   0  0  0  0  0  0  0  0  0  0  0  0
  -33.1481   22.7271    8.3303 H   0  0  0  0  0  0  0  0  0  0  0  0
  -32.3956   25.2627    9.5343 H   0  0  0  0  0  0  0  0  0  0  0  0
  -31.1348   24.5860    8.3789 H   0  0  0  0  0  0  0  0  0  0  0  0
  -33.5458   25.9996    7.7757 H   0  0  0  0  0  0  0  0  0  0  0  0
  -32.2641   25.3206    6.6745 H   0  0  0  0  0  0  0  0  0  0  0  0
  -34.0103   24.1535    5.8412 H   0  0  0  0  0  0  0  0  0  0  0  0
  -33.6165   23.0760    7.2627 H   0  0  0  0  0  0  0  0  0  0  0  0
  -35.3155   24.5131    8.5458 H   0  0  0  0  0  0  0  0  0  0  0  0
  -35.8680   24.9979    6.8517 H   0  0  0  0  0  0  0  0  0  0  0  0
  -36.2656   22.4816    8.3610 H   0  0  0  0  0  0  0  0  0  0  0  0
  -37.2982   23.3838    7.1256 H   0  0  0  0  0  0  0  0  0  0  0  0
  -35.6725   22.5388    5.3894 H   0  0  0  0  0  0  0  0  0  0  0  0
  -35.1080   21.3822    6.6876 H   0  0  0  0  0  0  0  0  0  0  0  0
  -37.7407   21.4942    5.2249 H   0  0  0  0  0  0  0  0  0  0  0  0
  -36.6301   20.0971    5.5657 H   0  0  0  0  0  0  0  0  0  0  0  0
  -37.4391   19.7734    7.6779 H   0  0  0  0  0  0  0  0  0  0  0  0
  -37.9212   21.5194    7.8611 H   0  0  0  0  0  0  0  0  0  0  0  0
  1  2  1  0
  2  3  1  0
  3  4  1  0
  4  5  1  0
  5  6  1  0
  6  7  1  0
  7  8  1  0
  8  9  1  0
  9 10  1  0
 10 11  1  0
 11 12  1  0
 12 13  1  0
 13 14  1  0
 14 15  1  0
 15 16  1  0
 16 17  1  0
 17 18  1  0
 18 19  2  0
 18 20  1  0
  1 21  1  0
  1 22  1  0
  1 23  1  0
  2 24  1  0
  2 25  1  0
  3 26  1  0
  3 27  1  0
  4 28  1  0
  4 29  1  0
  5 30  1  0
  5 31  1  0
  6 32  1  0
  6 33  1  0
  7 34  1  0
  7 35  1  0
  8 36  1  0
  8 37  1  0
  9 38  1  0
  9 39  1  0
 10 40  1  0
 10 41  1  0
 11 42  1  0
 11 43  1  0
 12 44  1  0
 12 45  1  0
 13 46  1  0
 13 47  1  0
 14 48  1  0
 14 49  1  0
 15 50  1  0
 15 51  1  0
 16 52  1  0
 16 53  1  0
 17 54  1  0
 17 55  1  0
M  CHG  1  20  -1
M  END
>  <meeko>  (7) 
{"is_sidechain": [false], "free_energy": -5.909, "intermolecular_energy": -11.553, "internal_energy": -2.594}

$$$$
stearate_Nlobe_run02
     RDKit          3D

 55 54  0  0  0  0  0  0  0  0999 V2000
  -34.2970   19.3610   11.2620 C   0  0  0  0  0  0  0  0  0  0  0  0
  -34.7380   20.6860   10.6590 C   0  0  0  0  0  0  0  0  0  0  0  0
  -34.0350   21.9000   11.2700 C   0  0  0  0  0  0  0  0  0  0  0  0
  -33.8840   23.0680   10.2920 C   0  0  0  0  0  0  0  0  0  0  0  0
  -32.6240   22.9150    9.4370 C   0  0  0  0  0  0  0  0  0  0  0  0
  -31.9860   24.2520    9.0480 C   0  0  0  0  0  0  0  0  0  0  0  0
  -32.0890   24.6330    7.5680 C   0  0  0  0  0  0  0  0  0  0  0  0
  -33.4540   25.1520    7.1070 C   0  0  0  0  0  0  0  0  0  0  0  0
  -34.4300   24.0400    6.7240 C   0  0  0  0  0  0  0  0  0  0  0  0
  -35.7490   24.0590    7.5060 C   0  0  0  0  0  0  0  0  0  0  0  0
  -36.4540   22.7020    7.6240 C   0  0  0  0  0  0  0  0  0  0  0  0
  -35.6270   21.5530    7.0400 C   0  0  0  0  0  0  0  0  0  0  0  0
  -36.1300   21.0720    5.6740 C   0  0  0  0  0  0  0  0  0  0  0  0
  -35.0540   20.8230    4.6120 C   0  0  0  0  0  0  0  0  0  0  0  0
  -33.6040   20.9800    5.0800 C   0  0  0  0  0  0  0  0  0  0  0  0
  -32.8260   19.6620    5.1230 C   0  0  0  0  0  0  0  0  0  0  0  0
  -33.1140   18.8630    6.3930 C   0  0  0  0  0  0  0  0  0  0  0  0
  -31.8600   18.4060    7.0870 C   0  0  0  0  0  0  0  0  0  0  0  0
  -31.6100   18.5310    8.2740 O   0  0  0  0  0  0  0  0  0  0  0  0
  -30.9910   17.7930    6.2630 O   0  0  0  0  0  0  0  0  0  0  0  0
  -34.3205   19.4317   12.3595 H   0  0  0  0  0  0  0  0  0  0  0  0
  -34.9780   18.5629   10.9313 H   0  0  0  0  0  0  0  0  0  0  0  0
  -33.2736   19.1302   10.9313 H   0  0  0  0  0  0  0  0  0  0  0  0
  -34.5233   20.6660    9.5803 H   0  0  0  0  0  0  0  0  0  0  0  0
  -35.8122   20.7950   10.8693 H   0  0  0  0  0  0  0  0  0  0  0  0
  -34.6202   22.2431   12.1359 H   0  0  0  0  0  0  0  0  0  0  0  0
  -33.0217   21.5805   11.5548 H   0  0  0  0  0  0  0  0  0  0  0  0
  -34.7636   23.0995    9.6322 H   0  0  0  0  0  0  0  0  0  0  0  0
  -33.8004   23.9990   10.8718 H   0  0  0  0  0  0  0  0  0  0  0  0
  -31.8864   22.3290   10.0049 H   0  0  0  0  0  0  0  0  0  0  0  0
  -32.9237   22.4149    8.5042 H   0  0  0  0  0  0  0  0  0  0  0  0
  -32.4752   25.0431    9.6352 H   0  0  0  0  0  0  0  0  0  0  0  0
  -30.9112   24.1420    9.2546 H   0  0  0  0  0  0  0  0  0  0  0  0
  -31.3446   25.4181    7.3690 H   0  0  0  0  0  0  0  0  0  0  0  0
  -31.9183   23.7022    7.0072 H   0  0  0  0  0  0  0  0  0  0  0  0
  -33.8979   25.7388    7.9247 H   0  0  0  0  0  0  0  0  0  0  0  0
  -33.2826   25.7577    6.2049 H   0  0  0  0  0  0  0  0  0  0  0  0
  -34.6630   24.1400    5.6536 H   0  0  0  0  0  0  0  0  0  0  0  0
  -33.9340   23.0888    6.9673 H   0  0  0  0  0  0  0  0  0  0  0  0
  -35.5376   24.4229    8.5223 H   0  0  0  0  0  0  0  0  0  0  0  0
  -36.4313   24.7110    6.9408 H   0  0  0  0  0  0  0  0  0  0  0  0
  -36.6423   22.4947    8.6878 H   0  0  0  0  0  0  0  0  0  0  0  0
  -37.3899   22.7630    7.0493 H   0  0  0  0  0  0  0  0  0  0  0  0
  -34.5872   21.8939    6.9281 H   0  0  0  0  0  0  0  0  0  0  0  0
  -35.7147   20.7047    7.7348 H   0  0  0  0  0  0  0  0  0  0  0  0
  -36.6747   20.1290    5.8289 H   0  0  0  0  0  0  0  0  0  0  0  0
  -36.7507   21.8908    5.2812 H   0  0  0  0  0  0  0  0  0  0  0  0
  -35.1788   19.7953    4.2401 H   0  0  0  0  0  0  0  0  0  0  0  0
  -35.2057   21.5984    3.8467 H   0  0  0  0  0  0  0  0  0  0  0  0
  -33.0887   21.6653    4.3909 H   0  0  0  0  0  0  0  0  0  0  0  0
  -33.6380   21.3674    6.1090 H   0  0  0  0  0  0  0  0  0  0  0  0
  -33.1093   19.0548    4.2506 H   0  0  0  0  0  0  0  0  0  0  0  0
  -31.7528   19.9029    5.1117 H   0  0  0  0  0  0  0  0  0  0  0  0
  -33.6884   19.4965    7.0849 H   0  0  0  0  0  0  0  0  0  0  0  0
  -33.6784   17.9653    6.1005 H   0  0  0  0  0  0  0  0  0  0  0  0
  1  2  1  0
  2  3  1  0
  3  4  1  0
  4  5  1  0
  5  6  1  0
  6  7  1  0
  7  8  1  0
  8  9  1  0
  9 10  1  0
 10 11  1  0
 11 12  1  0
 12 13  1  0
 13 14  1  0
 14 15  1  0
 15 16  1  0
 16 17  1  0
 17 18  1  0
 18 19  2  0
 18 20  1  0
  1 21  1  0
  1 22  1  0
  1 23  1  0
  2 24  1  0
  2 25  1  0
  3 26  1  0
  3 27  1  0
  4 28  1  0
  4 29  1  0
  5 30  1  0
  5 31  1  0
  6 32  1  0
  6 33  1  0
  7 34  1  0
  7 35  1  0
  8 36  1  0
  8 37  1  0
  9 38  1  0
  9 39  1  0
 10 40  1  0
 10 41  1  0
 11 42  1  0
 11 43  1  0
 12 44  1  0
 12 45  1  0
 13 46  1  0
 13 47  1  0
 14 48  1  0
 14 49  1  0
 15 50  1  0
 15 51  1  0
 16 52  1  0
 16 53  1  0
 17 54  1  0
 17 55  1  0
M  CHG  1  20  -1
M  END
>  <meeko>  (8) 
{"is_sidechain": [false], "free_energy": -5.885, "intermolecular_energy": -12.164, "internal_energy": -1.936}

$$$$
stearate_Nlobe_run02
     RDKit          3D

 55 54  0  0  0  0  0  0  0  0999 V2000
  -34.4420   18.5790   12.3840 C   0  0  0  0  0  0  0  0  0  0  0  0
  -34.0850   19.3080   11.0980 C   0  0  0  0  0  0  0  0  0  0  0  0
  -34.8210   20.6390   10.9250 C   0  0  0  0  0  0  0  0  0  0  0  0
  -34.0880   21.8240   11.5580 C   0  0  0  0  0  0  0  0  0  0  0  0
  -33.9440   22.9800   10.5660 C   0  0  0  0  0  0  0  0  0  0  0  0
  -32.8320   22.7630    9.5350 C   0  0  0  0  0  0  0  0  0  0  0  0
  -32.1300   24.0300    9.0360 C   0  0  0  0  0  0  0  0  0  0  0  0
  -32.2270   24.2960    7.5310 C   0  0  0  0  0  0  0  0  0  0  0  0
  -33.5280   24.9800    7.1160 C   0  0  0  0  0  0  0  0  0  0  0  0
  -34.6600   24.0140    6.7430 C   0  0  0  0  0  0  0  0  0  0  0  0
  -35.8080   23.9370    7.7570 C   0  0  0  0  0  0  0  0  0  0  0  0
  -36.7380   22.7450    7.5080 C   0  0  0  0  0  0  0  0  0  0  0  0
  -36.1050   21.6460    6.6480 C   0  0  0  0  0  0  0  0  0  0  0  0
  -35.3730   20.5360    7.4090 C   0  0  0  0  0  0  0  0  0  0  0  0
  -33.8610   20.4500    7.1740 C   0  0  0  0  0  0  0  0  0  0  0  0
  -33.4370   19.2360    6.3420 C   0  0  0  0  0  0  0  0  0  0  0  0
  -32.6490   19.6370    5.0970 C   0  0  0  0  0  0  0  0  0  0  0  0
  -33.1140   20.9420    4.5120 C   0  0  0  0  0  0  0  0  0  0  0  0
  -34.0710   21.0990    3.7740 O   0  0  0  0  0  0  0  0  0  0  0  0
  -32.3680   21.9920    4.9010 O   0  0  0  0  0  0  0  0  0  0  0  0
  -34.1424   19.1909   13.2476 H   0  0  0  0  0  0  0  0  0  0  0  0
  -35.5276   18.4044   12.4173 H   0  0  0  0  0  0  0  0  0  0  0  0
  -33.9143   17.6144   12.4173 H   0  0  0  0  0  0  0  0  0  0  0  0
  -33.0030   19.5062   11.0992 H   0  0  0  0  0  0  0  0  0  0  0  0
  -34.3899   18.6593   10.2635 H   0  0  0  0  0  0  0  0  0  0  0  0
  -34.9383   20.8356    9.8491 H   0  0  0  0  0  0  0  0  0  0  0  0
  -35.7896   20.5442   11.4376 H   0  0  0  0  0  0  0  0  0  0  0  0
  -34.6564   22.1712   12.4334 H   0  0  0  0  0  0  0  0  0  0  0  0
  -33.0820   21.4927   11.8549 H   0  0  0  0  0  0  0  0  0  0  0  0
  -34.8972   23.1004   10.0304 H   0  0  0  0  0  0  0  0  0  0  0  0
  -33.6773   23.8750   11.1473 H   0  0  0  0  0  0  0  0  0  0  0  0
  -32.0710   22.1127    9.9910 H   0  0  0  0  0  0  0  0  0  0  0  0
  -33.3230   22.3260    8.6530 H   0  0  0  0  0  0  0  0  0  0  0  0
  -32.5726   24.8899    9.5601 H   0  0  0  0  0  0  0  0  0  0  0  0
  -31.0603   23.8813    9.2451 H   0  0  0  0  0  0  0  0  0  0  0  0
  -31.3855   24.9402    7.2363 H   0  0  0  0  0  0  0  0  0  0  0  0
  -32.2003   23.3185    7.0272 H   0  0  0  0  0  0  0  0  0  0  0  0
  -33.8708   25.6048    7.9539 H   0  0  0  0  0  0  0  0  0  0  0  0
  -33.3017   25.5633    6.2112 H   0  0  0  0  0  0  0  0  0  0  0  0
  -35.0785   24.3354    5.7778 H   0  0  0  0  0  0  0  0  0  0  0  0
  -34.2098   23.0108    6.7121 H   0  0  0  0  0  0  0  0  0  0  0  0
  -35.3804   23.8449    8.7663 H   0  0  0  0  0  0  0  0  0  0  0  0
  -36.4070   24.8535    7.6510 H   0  0  0  0  0  0  0  0  0  0  0  0
  -37.0152   22.3105    8.4798 H   0  0  0  0  0  0  0  0  0  0  0  0
  -37.6110   23.1249    6.9570 H   0  0  0  0  0  0  0  0  0  0  0  0
  -36.9061   21.1774    6.0575 H   0  0  0  0  0  0  0  0  0  0  0  0
  -35.3355   22.1486    6.0436 H   0  0  0  0  0  0  0  0  0  0  0  0
  -35.5385   20.6985    8.4843 H   0  0  0  0  0  0  0  0  0  0  0  0
  -35.7881   19.5906    7.0297 H   0  0  0  0  0  0  0  0  0  0  0  0
  -33.5385   21.3611    6.6488 H   0  0  0  0  0  0  0  0  0  0  0  0
  -33.3869   20.3456    8.1611 H   0  0  0  0  0  0  0  0  0  0  0  0
  -32.8080   18.5824    6.9641 H   0  0  0  0  0  0  0  0  0  0  0  0
  -34.3492   18.7175    6.0119 H   0  0  0  0  0  0  0  0  0  0  0  0
  -31.5870   19.7311    5.3677 H   0  0  0  0  0  0  0  0  0  0  0  0
  -32.8073   18.8570    4.3377 H   0  0  0  0  0  0  0  0  0  0  0  0
  1  2  1  0
  2  3  1  0
  3  4  1  0
  4  5  1  0
  5  6  1  0
  6  7  1  0
  7  8  1  0
  8  9  1  0
  9 10  1  0
 10 11  1  0
 11 12  1  0
 12 13  1  0
 13 14  1  0
 14 15  1  0
 15 16  1  0
 16 17  1  0
 17 18  1  0
 18 19  2  0
 18 20  1  0
  1 21  1  0
  1 22  1  0
  1 23  1  0
  2 24  1  0
  2 25  1  0
  3 26  1  0
  3 27  1  0
  4 28  1  0
  4 29  1  0
  5 30  1  0
  5 31  1  0
  6 32  1  0
  6 33  1  0
  7 34  1  0
  7 35  1  0
  8 36  1  0
  8 37  1  0
  9 38  1  0
  9 39  1  0
 10 40  1  0
 10 41  1  0
 11 42  1  0
 11 43  1  0
 12 44  1  0
 12 45  1  0
 13 46  1  0
 13 47  1  0
 14 48  1  0
 14 49  1  0
 15 50  1  0
 15 51  1  0
 16 52  1  0
 16 53  1  0
 17 54  1  0
 17 55  1  0
M  CHG  1  20  -1
M  END
>  <meeko>  (9) 
{"is_sidechain": [false], "free_energy": -5.871, "intermolecular_energy": -12.036, "internal_energy": -2.037}

$$$$
stearate_Nlobe_run02
     RDKit          3D

 55 54  0  0  0  0  0  0  0  0999 V2000
  -39.7870   20.2060    7.5610 C   0  0  0  0  0  0  0  0  0  0  0  0
  -38.5030   19.8580    6.8220 C   0  0  0  0  0  0  0  0  0  0  0  0
  -37.3680   20.8550    7.0650 C   0  0  0  0  0  0  0  0  0  0  0  0
  -36.2690   20.7930    6.0000 C   0  0  0  0  0  0  0  0  0  0  0  0
  -35.4410   22.0800    5.9860 C   0  0  0  0  0  0  0  0  0  0  0  0
  -35.8130   23.0560    7.1060 C   0  0  0  0  0  0  0  0  0  0  0  0
  -34.9420   24.3130    7.2100 C   0  0  0  0  0  0  0  0  0  0  0  0
  -33.4800   24.1460    6.7860 C   0  0  0  0  0  0  0  0  0  0  0  0
  -32.5030   24.9500    7.6430 C   0  0  0  0  0  0  0  0  0  0  0  0
  -32.0640   24.2450    8.9320 C   0  0  0  0  0  0  0  0  0  0  0  0
  -32.7890   22.9270    9.2310 C   0  0  0  0  0  0  0  0  0  0  0  0
  -33.6140   22.9850   10.5210 C   0  0  0  0  0  0  0  0  0  0  0  0
  -34.3430   21.6750   10.8380 C   0  0  0  0  0  0  0  0  0  0  0  0
  -34.7350   20.8150    9.6320 C   0  0  0  0  0  0  0  0  0  0  0  0
  -33.9570   19.5070    9.4620 C   0  0  0  0  0  0  0  0  0  0  0  0
  -33.8690   19.0280    8.0100 C   0  0  0  0  0  0  0  0  0  0  0  0
  -32.7790   19.7560    7.2270 C   0  0  0  0  0  0  0  0  0  0  0  0
  -32.3060   18.9770    6.0310 C   0  0  0  0  0  0  0  0  0  0  0  0
  -31.5840   17.9950    6.0510 O   0  0  0  0  0  0  0  0  0  0  0  0
  -32.7830   19.4540    4.8670 O   0  0  0  0  0  0  0  0  0  0  0  0
  -39.6103   20.1581    8.6457 H   0  0  0  0  0  0  0  0  0  0  0  0
  -40.1045   21.2226    7.2858 H   0  0  0  0  0  0  0  0  0  0  0  0
  -40.5744   19.4888    7.2858 H   0  0  0  0  0  0  0  0  0  0  0  0
  -38.1694   18.8635    7.1534 H   0  0  0  0  0  0  0  0  0  0  0  0
  -38.7319   19.8851    5.7464 H   0  0  0  0  0  0  0  0  0  0  0  0
  -37.7908   21.8705    7.0718 H   0  0  0  0  0  0  0  0  0  0  0  0
  -36.9043   20.5927    8.0274 H   0  0  0  0  0  0  0  0  0  0  0  0
  -35.6065   19.9421    6.2168 H   0  0  0  0  0  0  0  0  0  0  0  0
  -36.7438   20.6727    5.0151 H   0  0  0  0  0  0  0  0  0  0  0  0
  -34.3796   21.8127    6.0950 H   0  0  0  0  0  0  0  0  0  0  0  0
  -35.6467   22.5875    5.0320 H   0  0  0  0  0  0  0  0  0  0  0  0
  -36.8521   23.3777    6.9424 H   0  0  0  0  0  0  0  0  0  0  0  0
  -35.6585   22.5060    8.0460 H   0  0  0  0  0  0  0  0  0  0  0  0
  -35.3918   25.0892    6.5734 H   0  0  0  0  0  0  0  0  0  0  0  0
  -34.9161   24.5717    8.2788 H   0  0  0  0  0  0  0  0  0  0  0  0
  -33.2148   23.0811    6.8612 H   0  0  0  0  0  0  0  0  0  0  0  0
  -33.3956   24.5243    5.7565 H   0  0  0  0  0  0  0  0  0  0  0  0
  -31.6059   25.1561    7.0407 H   0  0  0  0  0  0  0  0  0  0  0  0
  -33.0325   25.8642    7.9495 H   0  0  0  0  0  0  0  0  0  0  0  0
  -30.9876   24.0320    8.8545 H   0  0  0  0  0  0  0  0  0  0  0  0
  -32.3167   24.9279    9.7564 H   0  0  0  0  0  0  0  0  0  0  0  0
  -33.4629   22.6980    8.3923 H   0  0  0  0  0  0  0  0  0  0  0  0
  -32.0228   22.1486    9.3615 H   0  0  0  0  0  0  0  0  0  0  0  0
  -32.9380   23.2186   11.3567 H   0  0  0  0  0  0  0  0  0  0  0  0
  -34.3835   23.7581   10.3792 H   0  0  0  0  0  0  0  0  0  0  0  0
  -33.6862   21.0718   11.4821 H   0  0  0  0  0  0  0  0  0  0  0  0
  -35.2907   21.9705   11.3118 H   0  0  0  0  0  0  0  0  0  0  0  0
  -35.8011   20.5626    9.7303 H   0  0  0  0  0  0  0  0  0  0  0  0
  -34.4970   21.4203    8.7449 H   0  0  0  0  0  0  0  0  0  0  0  0
  -32.9353   19.6588    9.8402 H   0  0  0  0  0  0  0  0  0  0  0  0
  -34.5015   18.7335   10.0235 H   0  0  0  0  0  0  0  0  0  0  0  0
  -33.6486   17.9503    8.0053 H   0  0  0  0  0  0  0  0  0  0  0  0
  -34.8329   19.2419    7.5251 H   0  0  0  0  0  0  0  0  0  0  0  0
  -33.1780   20.7216    6.8829 H   0  0  0  0  0  0  0  0  0  0  0  0
  -31.9185   19.8882    7.8993 H   0  0  0  0  0  0  0  0  0  0  0  0
  1  2  1  0
  2  3  1  0
  3  4  1  0
  4  5  1  0
  5  6  1  0
  6  7  1  0
  7  8  1  0
  8  9  1  0
  9 10  1  0
 10 11  1  0
 11 12  1  0
 12 13  1  0
 13 14  1  0
 14 15  1  0
 15 16  1  0
 16 17  1  0
 17 18  1  0
 18 19  2  0
 18 20  1  0
  1 21  1  0
  1 22  1  0
  1 23  1  0
  2 24  1  0
  2 25  1  0
  3 26  1  0
  3 27  1  0
  4 28  1  0
  4 29  1  0
  5 30  1  0
  5 31  1  0
  6 32  1  0
  6 33  1  0
  7 34  1  0
  7 35  1  0
  8 36  1  0
  8 37  1  0
  9 38  1  0
  9 39  1  0
 10 40  1  0
 10 41  1  0
 11 42  1  0
 11 43  1  0
 12 44  1  0
 12 45  1  0
 13 46  1  0
 13 47  1  0
 14 48  1  0
 14 49  1  0
 15 50  1  0
 15 51  1  0
 16 52  1  0
 16 53  1  0
 17 54  1  0
 17 55  1  0
M  CHG  1  20  -1
M  END
>  <meeko>  (10) 
{"is_sidechain": [false], "free_energy": -5.852, "intermolecular_energy": -11.854, "internal_energy": -2.182}

$$$$
stearate_Nlobe_run02
     RDKit          3D

 55 54  0  0  0  0  0  0  0  0999 V2000
  -39.2930   20.2830    7.5540 C   0  0  0  0  0  0  0  0  0  0  0  0
  -38.5660   21.2920    6.6780 C   0  0  0  0  0  0  0  0  0  0  0  0
  -37.5640   20.6550    5.7130 C   0  0  0  0  0  0  0  0  0  0  0  0
  -36.1610   21.2610    5.8090 C   0  0  0  0  0  0  0  0  0  0  0  0
  -35.8530   21.7190    7.2360 C   0  0  0  0  0  0  0  0  0  0  0  0
  -35.4360   20.5740    8.1650 C   0  0  0  0  0  0  0  0  0  0  0  0
  -34.7300   20.9920    9.4600 C   0  0  0  0  0  0  0  0  0  0  0  0
  -34.8650   22.4690    9.8440 C   0  0  0  0  0  0  0  0  0  0  0  0
  -33.5630   23.0860   10.3520 C   0  0  0  0  0  0  0  0  0  0  0  0
  -32.4650   23.2110    9.2880 C   0  0  0  0  0  0  0  0  0  0  0  0
  -32.0270   24.6460    8.9710 C   0  0  0  0  0  0  0  0  0  0  0  0
  -32.7940   25.2530    7.7930 C   0  0  0  0  0  0  0  0  0  0  0  0
  -33.2000   24.2230    6.7330 C   0  0  0  0  0  0  0  0  0  0  0  0
  -32.0540   23.4440    6.0810 C   0  0  0  0  0  0  0  0  0  0  0  0
  -32.3670   21.9950    5.6910 C   0  0  0  0  0  0  0  0  0  0  0  0
  -31.9620   20.9710    6.7550 C   0  0  0  0  0  0  0  0  0  0  0  0
  -32.4700   19.5680    6.4300 C   0  0  0  0  0  0  0  0  0  0  0  0
  -31.7150   18.4940    7.1620 C   0  0  0  0  0  0  0  0  0  0  0  0
  -31.7420   18.2880    8.3640 O   0  0  0  0  0  0  0  0  0  0  0  0
  -30.9830   17.7130    6.3480 O   0  0  0  0  0  0  0  0  0  0  0  0
  -39.1191   20.5243    8.6130 H   0  0  0  0  0  0  0  0  0  0  0  0
  -40.3715   20.3225    7.3412 H   0  0  0  0  0  0  0  0  0  0  0  0
  -38.9141   19.2725    7.3412 H   0  0  0  0  0  0  0  0  0  0  0  0
  -39.3135   21.8437    6.0891 H   0  0  0  0  0  0  0  0  0  0  0  0
  -37.9943   21.9496    7.3494 H   0  0  0  0  0  0  0  0  0  0  0  0
  -37.4964   19.5806    5.9389 H   0  0  0  0  0  0  0  0  0  0  0  0
  -37.9304   20.8419    4.6928 H   0  0  0  0  0  0  0  0  0  0  0  0
  -35.4218   20.5042    5.5076 H   0  0  0  0  0  0  0  0  0  0  0  0
  -36.1131   22.1361    5.1442 H   0  0  0  0  0  0  0  0  0  0  0  0
  -35.0345   22.4529    7.1978 H   0  0  0  0  0  0  0  0  0  0  0  0
  -36.7784   22.1498    7.6461 H   0  0  0  0  0  0  0  0  0  0  0  0
  -36.3424   20.0145    8.4397 H   0  0  0  0  0  0  0  0  0  0  0  0
  -34.7005   19.9824    7.6001 H   0  0  0  0  0  0  0  0  0  0  0  0
  -35.1462   20.3900   10.2812 H   0  0  0  0  0  0  0  0  0  0  0  0
  -33.6571   20.8252    9.2836 H   0  0  0  0  0  0  0  0  0  0  0  0
  -35.1944   23.0309    8.9576 H   0  0  0  0  0  0  0  0  0  0  0  0
  -35.5932   22.5251   10.6666 H   0  0  0  0  0  0  0  0  0  0  0  0
  -33.7859   24.0922   10.7366 H   0  0  0  0  0  0  0  0  0  0  0  0
  -33.1748   22.4080   11.1264 H   0  0  0  0  0  0  0  0  0  0  0  0
  -31.5835   22.6557    9.6411 H   0  0  0  0  0  0  0  0  0  0  0  0
  -32.8925   22.8085    8.3578 H   0  0  0  0  0  0  0  0  0  0  0  0
  -32.1973   25.2702    9.8606 H   0  0  0  0  0  0  0  0  0  0  0  0
  -30.9632   24.6142    8.6929 H   0  0  0  0  0  0  0  0  0  0  0  0
  -33.7054   25.7319    8.1804 H   0  0  0  0  0  0  0  0  0  0  0  0
  -32.1206   25.9725    7.3043 H   0  0  0  0  0  0  0  0  0  0  0  0
  -33.8726   23.4954    7.2108 H   0  0  0  0  0  0  0  0  0  0  0  0
  -33.6659   24.8006    5.9210 H   0  0  0  0  0  0  0  0  0  0  0  0
  -31.7568   23.9820    5.1687 H   0  0  0  0  0  0  0  0  0  0  0  0
  -31.2634   23.3832    6.8434 H   0  0  0  0  0  0  0  0  0  0  0  0
  -33.4500   21.9076    5.5191 H   0  0  0  0  0  0  0  0  0  0  0  0
  -31.7798   21.7706    4.7883 H   0  0  0  0  0  0  0  0  0  0  0  0
  -30.8643   20.9437    6.8204 H   0  0  0  0  0  0  0  0  0  0  0  0
  -32.4130   21.2802    7.7095 H   0  0  0  0  0  0  0  0  0  0  0  0
  -33.5320   19.5046    6.7096 H   0  0  0  0  0  0  0  0  0  0  0  0
  -32.3226   19.4024    5.3526 H   0  0  0  0  0  0  0  0  0  0  0  0
  1  2  1  0
  2  3  1  0
  3  4  1  0
  4  5  1  0
  5  6  1  0
  6  7  1  0
  7  8  1  0
  8  9  1  0
  9 10  1  0
 10 11  1  0
 11 12  1  0
 12 13  1  0
 13 14  1  0
 14 15  1  0
 15 16  1  0
 16 17  1  0
 17 18  1  0
 18 19  2  0
 18 20  1  0
  1 21  1  0
  1 22  1  0
  1 23  1  0
  2 24  1  0
  2 25  1  0
  3 26  1  0
  3 27  1  0
  4 28  1  0
  4 29  1  0
  5 30  1  0
  5 31  1  0
  6 32  1  0
  6 33  1  0
  7 34  1  0
  7 35  1  0
  8 36  1  0
  8 37  1  0
  9 38  1  0
  9 39  1  0
 10 40  1  0
 10 41  1  0
 11 42  1  0
 11 43  1  0
 12 44  1  0
 12 45  1  0
 13 46  1  0
 13 47  1  0
 14 48  1  0
 14 49  1  0
 15 50  1  0
 15 51  1  0
 16 52  1  0
 16 53  1  0
 17 54  1  0
 17 55  1  0
M  CHG  1  20  -1
M  END
>  <meeko>  (11) 
{"is_sidechain": [false], "free_energy": -5.843, "intermolecular_energy": -11.852, "internal_energy": -2.167}

$$$$
stearate_Nlobe_run02
     RDKit          3D

 55 54  0  0  0  0  0  0  0  0999 V2000
  -39.6760   20.4470    7.6960 C   0  0  0  0  0  0  0  0  0  0  0  0
  -38.2650   20.6330    7.1580 C   0  0  0  0  0  0  0  0  0  0  0  0
  -37.7410   22.0650    7.2970 C   0  0  0  0  0  0  0  0  0  0  0  0
  -36.2430   22.1930    7.0090 C   0  0  0  0  0  0  0  0  0  0  0  0
  -35.7210   23.5760    7.4030 C   0  0  0  0  0  0  0  0  0  0  0  0
  -34.2030   23.7200    7.2470 C   0  0  0  0  0  0  0  0  0  0  0  0
  -33.3540   22.7910    8.1210 C   0  0  0  0  0  0  0  0  0  0  0  0
  -32.8870   23.3760    9.4570 C   0  0  0  0  0  0  0  0  0  0  0  0
  -33.6600   22.8380   10.6600 C   0  0  0  0  0  0  0  0  0  0  0  0
  -34.6830   21.7470   10.3180 C   0  0  0  0  0  0  0  0  0  0  0  0
  -34.7080   20.5550   11.2840 C   0  0  0  0  0  0  0  0  0  0  0  0
  -34.0870   19.2910   10.6800 C   0  0  0  0  0  0  0  0  0  0  0  0
  -34.0110   19.3210    9.1490 C   0  0  0  0  0  0  0  0  0  0  0  0
  -32.6180   19.1200    8.5430 C   0  0  0  0  0  0  0  0  0  0  0  0
  -32.5670   18.3240    7.2350 C   0  0  0  0  0  0  0  0  0  0  0  0
  -32.4780   19.2020    5.9840 C   0  0  0  0  0  0  0  0  0  0  0  0
  -33.7960   19.9110    5.6810 C   0  0  0  0  0  0  0  0  0  0  0  0
  -33.6440   21.0100    4.6660 C   0  0  0  0  0  0  0  0  0  0  0  0
  -34.4650   21.3290    3.8240 O   0  0  0  0  0  0  0  0  0  0  0  0
  -32.4780   21.6720    4.7740 O   0  0  0  0  0  0  0  0  0  0  0  0
  -39.6525   20.4501    8.7957 H   0  0  0  0  0  0  0  0  0  0  0  0
  -40.3152   21.2687    7.3406 H   0  0  0  0  0  0  0  0  0  0  0  0
  -40.0804   19.4878    7.3406 H   0  0  0  0  0  0  0  0  0  0  0  0
  -37.5910   19.9608    7.7092 H   0  0  0  0  0  0  0  0  0  0  0  0
  -38.2964   20.4034    6.0827 H   0  0  0  0  0  0  0  0  0  0  0  0
  -38.2882   22.7070    6.5910 H   0  0  0  0  0  0  0  0  0  0  0  0
  -37.8987   22.3693    8.3423 H   0  0  0  0  0  0  0  0  0  0  0  0
  -35.7004   21.4275    7.5831 H   0  0  0  0  0  0  0  0  0  0  0  0
  -36.0823   22.0541    5.9297 H   0  0  0  0  0  0  0  0  0  0  0  0
  -36.2100   24.3279    6.7661 H   0  0  0  0  0  0  0  0  0  0  0  0
  -35.9534   23.7197    8.4685 H   0  0  0  0  0  0  0  0  0  0  0  0
  -33.9507   23.5186    6.1954 H   0  0  0  0  0  0  0  0  0  0  0  0
  -33.9635   24.7422    7.5754 H   0  0  0  0  0  0  0  0  0  0  0  0
  -33.9501   21.8919    8.3361 H   0  0  0  0  0  0  0  0  0  0  0  0
  -32.4381   22.5931    7.5449 H   0  0  0  0  0  0  0  0  0  0  0  0
  -31.8223   23.1337    9.5903 H   0  0  0  0  0  0  0  0  0  0  0  0
  -33.0654   24.4607    9.4159 H   0  0  0  0  0  0  0  0  0  0  0  0
  -32.9364   22.4195   11.3750 H   0  0  0  0  0  0  0  0  0  0  0  0
  -34.2288   23.6844   11.0724 H   0  0  0  0  0  0  0  0  0  0  0  0
  -35.6829   22.2055   10.3160 H   0  0  0  0  0  0  0  0  0  0  0  0
  -34.3855   21.3429    9.3391 H   0  0  0  0  0  0  0  0  0  0  0  0
  -34.1459   20.8247   12.1903 H   0  0  0  0  0  0  0  0  0  0  0  0
  -35.7613   20.3324   11.5097 H   0  0  0  0  0  0  0  0  0  0  0  0
  -33.0674   19.1794   11.0775 H   0  0  0  0  0  0  0  0  0  0  0  0
  -34.7360   18.4469   10.9562 H   0  0  0  0  0  0  0  0  0  0  0  0
  -34.6641   18.5242    8.7637 H   0  0  0  0  0  0  0  0  0  0  0  0
  -34.3191   20.3355    8.8559 H   0  0  0  0  0  0  0  0  0  0  0  0
  -32.1876   20.1137    8.3500 H   0  0  0  0  0  0  0  0  0  0  0  0
  -32.0567   18.5234    9.2772 H   0  0  0  0  0  0  0  0  0  0  0  0
  -31.6849   17.6674    7.2621 H   0  0  0  0  0  0  0  0  0  0  0  0
  -33.5083   17.7591    7.1653 H   0  0  0  0  0  0  0  0  0  0  0  0
  -31.6956   19.9597    6.1381 H   0  0  0  0  0  0  0  0  0  0  0  0
  -32.2417   18.5498    5.1303 H   0  0  0  0  0  0  0  0  0  0  0  0
  -34.5126   19.1715    5.2942 H   0  0  0  0  0  0  0  0  0  0  0  0
  -34.1493   20.3693    6.6165 H   0  0  0  0  0  0  0  0  0  0  0  0
  1  2  1  0
  2  3  1  0
  3  4  1  0
  4  5  1  0
  5  6  1  0
  6  7  1  0
  7  8  1  0
  8  9  1  0
  9 10  1  0
 10 11  1  0
 11 12  1  0
 12 13  1  0
 13 14  1  0
 14 15  1  0
 15 16  1  0
 16 17  1  0
 17 18  1  0
 18 19  2  0
 18 20  1  0
  1 21  1  0
  1 22  1  0
  1 23  1  0
  2 24  1  0
  2 25  1  0
  3 26  1  0
  3 27  1  0
  4 28  1  0
  4 29  1  0
  5 30  1  0
  5 31  1  0
  6 32  1  0
  6 33  1  0
  7 34  1  0
  7 35  1  0
  8 36  1  0
  8 37  1  0
  9 38  1  0
  9 39  1  0
 10 40  1  0
 10 41  1  0
 11 42  1  0
 11 43  1  0
 12 44  1  0
 12 45  1  0
 13 46  1  0
 13 47  1  0
 14 48  1  0
 14 49  1  0
 15 50  1  0
 15 51  1  0
 16 52  1  0
 16 53  1  0
 17 54  1  0
 17 55  1  0
M  CHG  1  20  -1
M  END
>  <meeko>  (12) 
{"is_sidechain": [false], "free_energy": -5.84, "intermolecular_energy": -11.896, "internal_energy": -2.117}

$$$$
stearate_Nlobe_run02
     RDKit          3D

 55 54  0  0  0  0  0  0  0  0999 V2000
  -34.2970   22.0760   10.9090 C   0  0  0  0  0  0  0  0  0  0  0  0
  -34.6860   20.6450   11.2490 C   0  0  0  0  0  0  0  0  0  0  0  0
  -34.0350   19.6010   10.3390 C   0  0  0  0  0  0  0  0  0  0  0  0
  -34.3320   19.8230    8.8530 C   0  0  0  0  0  0  0  0  0  0  0  0
  -33.4910   18.8920    7.9760 C   0  0  0  0  0  0  0  0  0  0  0  0
  -32.1790   19.5240    7.5010 C   0  0  0  0  0  0  0  0  0  0  0  0
  -32.3190   20.6630    6.4860 C   0  0  0  0  0  0  0  0  0  0  0  0
  -31.6080   21.9700    6.8510 C   0  0  0  0  0  0  0  0  0  0  0  0
  -32.1250   22.6040    8.1410 C   0  0  0  0  0  0  0  0  0  0  0  0
  -31.8700   24.1120    8.2520 C   0  0  0  0  0  0  0  0  0  0  0  0
  -32.9480   25.0020    7.6210 C   0  0  0  0  0  0  0  0  0  0  0  0
  -34.0330   24.1960    6.8990 C   0  0  0  0  0  0  0  0  0  0  0  0
  -35.3580   24.1340    7.6660 C   0  0  0  0  0  0  0  0  0  0  0  0
  -36.0640   22.7740    7.6780 C   0  0  0  0  0  0  0  0  0  0  0  0
  -35.9470   21.9490    6.3930 C   0  0  0  0  0  0  0  0  0  0  0  0
  -37.0090   20.8530    6.2670 C   0  0  0  0  0  0  0  0  0  0  0  0
  -38.1940   21.0870    7.2020 C   0  0  0  0  0  0  0  0  0  0  0  0
  -39.4660   20.4660    6.6930 C   0  0  0  0  0  0  0  0  0  0  0  0
  -39.6890   20.1250    5.5440 O   0  0  0  0  0  0  0  0  0  0  0  0
  -40.3870   20.2810    7.6560 O   0  0  0  0  0  0  0  0  0  0  0  0
  -34.1425   22.6445   11.8379 H   0  0  0  0  0  0  0  0  0  0  0  0
  -33.3670   22.0735   10.3216 H   0  0  0  0  0  0  0  0  0  0  0  0
  -35.1003   22.5447   10.3216 H   0  0  0  0  0  0  0  0  0  0  0  0
  -34.3834   20.4394   12.2864 H   0  0  0  0  0  0  0  0  0  0  0  0
  -35.7738   20.5637   11.1069 H   0  0  0  0  0  0  0  0  0  0  0  0
  -32.9457   19.6396   10.4869 H   0  0  0  0  0  0  0  0  0  0  0  0
  -34.4561   18.6223   10.6127 H   0  0  0  0  0  0  0  0  0  0  0  0
  -35.3980   19.6257    8.6667 H   0  0  0  0  0  0  0  0  0  0  0  0
  -34.0802   20.8632    8.5988 H   0  0  0  0  0  0  0  0  0  0  0  0
  -33.2527   17.9880    8.5557 H   0  0  0  0  0  0  0  0  0  0  0  0
  -34.0859   18.6660    7.0788 H   0  0  0  0  0  0  0  0  0  0  0  0
  -31.6559   19.9204    8.3837 H   0  0  0  0  0  0  0  0  0  0  0  0
  -31.6324   18.7240    6.9802 H   0  0  0  0  0  0  0  0  0  0  0  0
  -31.9105   20.3127    5.5266 H   0  0  0  0  0  0  0  0  0  0  0  0
  -33.3916   20.9046    6.4529 H   0  0  0  0  0  0  0  0  0  0  0  0
  -30.5348   21.7609    6.9714 H   0  0  0  0  0  0  0  0  0  0  0  0
  -31.8047   22.6839    6.0376 H   0  0  0  0  0  0  0  0  0  0  0  0
  -33.2103   22.4335    8.1973 H   0  0  0  0  0  0  0  0  0  0  0  0
  -31.5733   22.1307    8.9666 H   0  0  0  0  0  0  0  0  0  0  0  0
  -31.7986   24.3679    9.3194 H   0  0  0  0  0  0  0  0  0  0  0  0
  -30.9440   24.3083    7.6917 H   0  0  0  0  0  0  0  0  0  0  0  0
  -33.4220   25.5973    8.4153 H   0  0  0  0  0  0  0  0  0  0  0  0
  -32.4554   25.6403    6.8728 H   0  0  0  0  0  0  0  0  0  0  0  0
  -34.2187   24.6608    5.9195 H   0  0  0  0  0  0  0  0  0  0  0  0
  -33.6631   23.1642    6.8066 H   0  0  0  0  0  0  0  0  0  0  0  0
  -35.1565   24.4178    8.7095 H   0  0  0  0  0  0  0  0  0  0  0  0
  -36.0391   24.8171    7.1373 H   0  0  0  0  0  0  0  0  0  0  0  0
  -35.6378   22.1801    8.5000 H   0  0  0  0  0  0  0  0  0  0  0  0
  -37.1353   22.9954    7.7934 H   0  0  0  0  0  0  0  0  0  0  0  0
  -36.0455   22.6286    5.5337 H   0  0  0  0  0  0  0  0  0  0  0  0
  -34.9685   21.4472    6.4208 H   0  0  0  0  0  0  0  0  0  0  0  0
  -37.3749   20.8320    5.2299 H   0  0  0  0  0  0  0  0  0  0  0  0
  -36.5422   19.8970    6.5465 H   0  0  0  0  0  0  0  0  0  0  0  0
  -37.9585   20.6519    8.1844 H   0  0  0  0  0  0  0  0  0  0  0  0
  -38.3570   22.1729    7.2668 H   0  0  0  0  0  0  0  0  0  0  0  0
  1  2  1  0
  2  3  1  0
  3  4  1  0
  4  5  1  0
  5  6  1  0
  6  7  1  0
  7  8  1  0
  8  9  1  0
  9 10  1  0
 10 11  1  0
 11 12  1  0
 12 13  1  0
 13 14  1  0
 14 15  1  0
 15 16  1  0
 16 17  1  0
 17 18  1  0
 18 19  2  0
 18 20  1  0
  1 21  1  0
  1 22  1  0
  1 23  1  0
  2 24  1  0
  2 25  1  0
  3 26  1  0
  3 27  1  0
  4 28  1  0
  4 29  1  0
  5 30  1  0
  5 31  1  0
  6 32  1  0
  6 33  1  0
  7 34  1  0
  7 35  1  0
  8 36  1  0
  8 37  1  0
  9 38  1  0
  9 39  1  0
 10 40  1  0
 10 41  1  0
 11 42  1  0
 11 43  1  0
 12 44  1  0
 12 45  1  0
 13 46  1  0
 13 47  1  0
 14 48  1  0
 14 49  1  0
 15 50  1  0
 15 51  1  0
 16 52  1  0
 16 53  1  0
 17 54  1  0
 17 55  1  0
M  CHG  1  20  -1
M  END
>  <meeko>  (13) 
{"is_sidechain": [false], "free_energy": -5.832, "intermolecular_energy": -11.872, "internal_energy": -2.126}

$$$$
stearate_Nlobe_run02
     RDKit          3D

 55 54  0  0  0  0  0  0  0  0999 V2000
  -34.7620   21.4950    9.8900 C   0  0  0  0  0  0  0  0  0  0  0  0
  -35.3630   21.8200    8.5310 C   0  0  0  0  0  0  0  0  0  0  0  0
  -35.5090   23.3210    8.2700 C   0  0  0  0  0  0  0  0  0  0  0  0
  -34.8670   23.7730    6.9560 C   0  0  0  0  0  0  0  0  0  0  0  0
  -33.5750   24.5520    7.2100 C   0  0  0  0  0  0  0  0  0  0  0  0
  -32.3090   23.7570    6.8740 C   0  0  0  0  0  0  0  0  0  0  0  0
  -31.9610   22.6210    7.8420 C   0  0  0  0  0  0  0  0  0  0  0  0
  -31.3790   21.3570    7.2020 C   0  0  0  0  0  0  0  0  0  0  0  0
  -31.9880   20.0650    7.7450 C   0  0  0  0  0  0  0  0  0  0  0  0
  -31.6950   18.8220    6.8960 C   0  0  0  0  0  0  0  0  0  0  0  0
  -32.7200   18.5330    5.7910 C   0  0  0  0  0  0  0  0  0  0  0  0
  -32.4070   19.2730    4.4870 C   0  0  0  0  0  0  0  0  0  0  0  0
  -33.3740   20.4240    4.1900 C   0  0  0  0  0  0  0  0  0  0  0  0
  -34.5880   20.5370    5.1190 C   0  0  0  0  0  0  0  0  0  0  0  0
  -35.8180   21.2350    4.5290 C   0  0  0  0  0  0  0  0  0  0  0  0
  -37.1060   20.4160    4.6510 C   0  0  0  0  0  0  0  0  0  0  0  0
  -37.8520   20.7030    5.9530 C   0  0  0  0  0  0  0  0  0  0  0  0
  -39.3060   20.3260    5.8840 C   0  0  0  0  0  0  0  0  0  0  0  0
  -39.9260   20.0380    4.8750 O   0  0  0  0  0  0  0  0  0  0  0  0
  -39.9050   20.3050    7.0880 O   0  0  0  0  0  0  0  0  0  0  0  0
  -35.4322   21.8574   10.6834 H   0  0  0  0  0  0  0  0  0  0  0  0
  -34.6368   20.4063    9.9847 H   0  0  0  0  0  0  0  0  0  0  0  0
  -33.7824   21.9863    9.9847 H   0  0  0  0  0  0  0  0  0  0  0  0
  -34.7139   21.3929    7.7523 H   0  0  0  0  0  0  0  0  0  0  0  0
  -36.3750   21.3892    8.5139 H   0  0  0  0  0  0  0  0  0  0  0  0
  -36.5806   23.5670    8.2376 H   0  0  0  0  0  0  0  0  0  0  0  0
  -34.9875   23.8452    9.0843 H   0  0  0  0  0  0  0  0  0  0  0  0
  -34.6376   22.8872    6.3455 H   0  0  0  0  0  0  0  0  0  0  0  0
  -35.5741   24.4330    6.4321 H   0  0  0  0  0  0  0  0  0  0  0  0
  -33.5894   25.4621    6.5923 H   0  0  0  0  0  0  0  0  0  0  0  0
  -33.5394   24.7800    8.2855 H   0  0  0  0  0  0  0  0  0  0  0  0
  -32.4401   23.3199    5.8731 H   0  0  0  0  0  0  0  0  0  0  0  0
  -31.4777   24.4742    6.9422 H   0  0  0  0  0  0  0  0  0  0  0  0
  -31.2238   23.0050    8.5625 H   0  0  0  0  0  0  0  0  0  0  0  0
  -32.9136   22.3142    8.2986 H   0  0  0  0  0  0  0  0  0  0  0  0
  -31.5614   21.3996    6.1181 H   0  0  0  0  0  0  0  0  0  0  0  0
  -30.3060   21.3361    7.4431 H   0  0  0  0  0  0  0  0  0  0  0  0
  -31.5880   19.8939    8.7553 H   0  0  0  0  0  0  0  0  0  0  0  0
  -33.0793   20.2030    7.7342 H   0  0  0  0  0  0  0  0  0  0  0  0
  -30.7116   18.9570    6.4220 H   0  0  0  0  0  0  0  0  0  0  0  0
  -31.7353   17.9644    7.5837 H   0  0  0  0  0  0  0  0  0  0  0  0
  -32.7250   17.4516    5.5896 H   0  0  0  0  0  0  0  0  0  0  0  0
  -33.6998   18.8849    6.1461 H   0  0  0  0  0  0  0  0  0  0  0  0
  -31.3885   19.6828    4.5551 H   0  0  0  0  0  0  0  0  0  0  0  0
  -32.5099   18.5448    3.6690 H   0  0  0  0  0  0  0  0  0  0  0  0
  -32.8086   21.3651    4.2587 H   0  0  0  0  0  0  0  0  0  0  0  0
  -33.7834   20.2175    3.1901 H   0  0  0  0  0  0  0  0  0  0  0  0
  -34.8854   19.5189    5.4106 H   0  0  0  0  0  0  0  0  0  0  0  0
  -34.2624   21.1669    5.9600 H   0  0  0  0  0  0  0  0  0  0  0  0
  -35.9620   22.1898    5.0559 H   0  0  0  0  0  0  0  0  0  0  0  0
  -35.6252   21.3743    3.4550 H   0  0  0  0  0  0  0  0  0  0  0  0
  -37.7637   20.6622    3.8044 H   0  0  0  0  0  0  0  0  0  0  0  0
  -36.8303   19.3511    4.6478 H   0  0  0  0  0  0  0  0  0  0  0  0
  -37.3780   20.1302    6.7637 H   0  0  0  0  0  0  0  0  0  0  0  0
  -37.7980   21.7865    6.1349 H   0  0  0  0  0  0  0  0  0  0  0  0
  1  2  1  0
  2  3  1  0
  3  4  1  0
  4  5  1  0
  5  6  1  0
  6  7  1  0
  7  8  1  0
  8  9  1  0
  9 10  1  0
 10 11  1  0
 11 12  1  0
 12 13  1  0
 13 14  1  0
 14 15  1  0
 15 16  1  0
 16 17  1  0
 17 18  1  0
 18 19  2  0
 18 20  1  0
  1 21  1  0
  1 22  1  0
  1 23  1  0
  2 24  1  0
  2 25  1  0
  3 26  1  0
  3 27  1  0
  4 28  1  0
  4 29  1  0
  5 30  1  0
  5 31  1  0
  6 32  1  0
  6 33  1  0
  7 34  1  0
  7 35  1  0
  8 36  1  0
  8 37  1  0
  9 38  1  0
  9 39  1  0
 10 40  1  0
 10 41  1  0
 11 42  1  0
 11 43  1  0
 12 44  1  0
 12 45  1  0
 13 46  1  0
 13 47  1  0
 14 48  1  0
 14 49  1  0
 15 50  1  0
 15 51  1  0
 16 52  1  0
 16 53  1  0
 17 54  1  0
 17 55  1  0
M  CHG  1  20  -1
M  END
>  <meeko>  (14) 
{"is_sidechain": [false], "free_energy": -5.816, "intermolecular_energy": -11.559, "internal_energy": -2.408}

$$$$
stearate_Nlobe_run02
     RDKit          3D

 55 54  0  0  0  0  0  0  0  0999 V2000
  -31.7590   24.7180    8.8490 C   0  0  0  0  0  0  0  0  0  0  0  0
  -32.7560   25.1930    7.8030 C   0  0  0  0  0  0  0  0  0  0  0  0
  -33.2030   24.0910    6.8390 C   0  0  0  0  0  0  0  0  0  0  0  0
  -34.7170   23.8640    6.8380 C   0  0  0  0  0  0  0  0  0  0  0  0
  -35.2700   23.8170    8.2650 C   0  0  0  0  0  0  0  0  0  0  0  0
  -35.4580   22.3920    8.7970 C   0  0  0  0  0  0  0  0  0  0  0  0
  -34.1740   21.6560    9.1950 C   0  0  0  0  0  0  0  0  0  0  0  0
  -34.3030   20.1390    9.3660 C   0  0  0  0  0  0  0  0  0  0  0  0
  -33.7300   19.3440    8.1940 C   0  0  0  0  0  0  0  0  0  0  0  0
  -32.5850   20.0470    7.4520 C   0  0  0  0  0  0  0  0  0  0  0  0
  -32.5340   19.7880    5.9410 C   0  0  0  0  0  0  0  0  0  0  0  0
  -33.0670   20.9660    5.1210 C   0  0  0  0  0  0  0  0  0  0  0  0
  -34.3240   20.6280    4.3120 C   0  0  0  0  0  0  0  0  0  0  0  0
  -35.6330   21.2440    4.8150 C   0  0  0  0  0  0  0  0  0  0  0  0
  -36.3550   20.4680    5.9220 C   0  0  0  0  0  0  0  0  0  0  0  0
  -37.8640   20.7280    5.9710 C   0  0  0  0  0  0  0  0  0  0  0  0
  -38.3540   21.0170    7.3870 C   0  0  0  0  0  0  0  0  0  0  0  0
  -39.8550   21.0300    7.4900 C   0  0  0  0  0  0  0  0  0  0  0  0
  -40.5770   20.0530    7.5920 O   0  0  0  0  0  0  0  0  0  0  0  0
  -40.3750   22.2710    7.4850 O   0  0  0  0  0  0  0  0  0  0  0  0
  -32.1625   24.9102    9.8541 H   0  0  0  0  0  0  0  0  0  0  0  0
  -31.5831   23.6393    8.7247 H   0  0  0  0  0  0  0  0  0  0  0  0
  -30.8105   25.2610    8.7247 H   0  0  0  0  0  0  0  0  0  0  0  0
  -33.6443   25.5835    8.3210 H   0  0  0  0  0  0  0  0  0  0  0  0
  -32.2509   25.9631    7.2015 H   0  0  0  0  0  0  0  0  0  0  0  0
  -32.8912   24.3697    5.8216 H   0  0  0  0  0  0  0  0  0  0  0  0
  -32.7336   23.1546    7.1749 H   0  0  0  0  0  0  0  0  0  0  0  0
  -35.2028   24.6859    6.2917 H   0  0  0  0  0  0  0  0  0  0  0  0
  -34.9246   22.8994    6.3517 H   0  0  0  0  0  0  0  0  0  0  0  0
  -34.5706   24.3475    8.9279 H   0  0  0  0  0  0  0  0  0  0  0  0
  -36.2628   24.2903    8.2449 H   0  0  0  0  0  0  0  0  0  0  0  0
  -36.1058   22.4454    9.6844 H   0  0  0  0  0  0  0  0  0  0  0  0
  -35.8880   21.8157    7.9646 H   0  0  0  0  0  0  0  0  0  0  0  0
  -33.4207   21.8454    8.4161 H   0  0  0  0  0  0  0  0  0  0  0  0
  -33.8995   22.0469   10.1859 H   0  0  0  0  0  0  0  0  0  0  0  0
  -33.7683   19.8448   10.2812 H   0  0  0  0  0  0  0  0  0  0  0  0
  -35.3774   19.9090    9.4192 H   0  0  0  0  0  0  0  0  0  0  0  0
  -33.3529   18.3854    8.5799 H   0  0  0  0  0  0  0  0  0  0  0  0
  -34.5470   19.2216    7.4677 H   0  0  0  0  0  0  0  0  0  0  0  0
  -32.6917   21.1305    7.6088 H   0  0  0  0  0  0  0  0  0  0  0  0
  -31.6528   19.6347    7.8655 H   0  0  0  0  0  0  0  0  0  0  0  0
  -31.4894   19.6015    5.6510 H   0  0  0  0  0  0  0  0  0  0  0  0
  -33.1759   18.9197    5.7310 H   0  0  0  0  0  0  0  0  0  0  0  0
  -33.3070   21.7894    5.8097 H   0  0  0  0  0  0  0  0  0  0  0  0
  -32.2823   21.2403    4.4006 H   0  0  0  0  0  0  0  0  0  0  0  0
  -34.1635   20.9748    3.2805 H   0  0  0  0  0  0  0  0  0  0  0  0
  -34.4533   19.5397    4.4065 H   0  0  0  0  0  0  0  0  0  0  0  0
  -35.4065   22.2491    5.2004 H   0  0  0  0  0  0  0  0  0  0  0  0
  -36.3159   21.2380    3.9527 H   0  0  0  0  0  0  0  0  0  0  0  0
  -36.1929   19.3929    5.7552 H   0  0  0  0  0  0  0  0  0  0  0  0
  -35.9379   20.8110    6.8803 H   0  0  0  0  0  0  0  0  0  0  0  0
  -38.0951   21.5935    5.3327 H   0  0  0  0  0  0  0  0  0  0  0  0
  -38.3745   19.8206    5.6159 H   0  0  0  0  0  0  0  0  0  0  0  0
  -37.9616   20.2409    8.0606 H   0  0  0  0  0  0  0  0  0  0  0  0
  -37.9929   22.0178    7.6661 H   0  0  0  0  0  0  0  0  0  0  0  0
  1  2  1  0
  2  3  1  0
  3  4  1  0
  4  5  1  0
  5  6  1  0
  6  7  1  0
  7  8  1  0
  8  9  1  0
  9 10  1  0
 10 11  1  0
 11 12  1  0
 12 13  1  0
 13 14  1  0
 14 15  1  0
 15 16  1  0
 16 17  1  0
 17 18  1  0
 18 19  2  0
 18 20  1  0
  1 21  1  0
  1 22  1  0
  1 23  1  0
  2 24  1  0
  2 25  1  0
  3 26  1  0
  3 27  1  0
  4 28  1  0
  4 29  1  0
  5 30  1  0
  5 31  1  0
  6 32  1  0
  6 33  1  0
  7 34  1  0
  7 35  1  0
  8 36  1  0
  8 37  1  0
  9 38  1  0
  9 39  1  0
 10 40  1  0
 10 41  1  0
 11 42  1  0
 11 43  1  0
 12 44  1  0
 12 45  1  0
 13 46  1  0
 13 47  1  0
 14 48  1  0
 14 49  1  0
 15 50  1  0
 15 51  1  0
 16 52  1  0
 16 53  1  0
 17 54  1  0
 17 55  1  0
M  CHG  1  20  -1
M  END
>  <meeko>  (15) 
{"is_sidechain": [false], "free_energy": -5.805, "intermolecular_energy": -11.459, "internal_energy": -2.487}

$$$$
stearate_Nlobe_run02
     RDKit          3D

 55 54  0  0  0  0  0  0  0  0999 V2000
  -39.0610   20.5300    7.6750 C   0  0  0  0  0  0  0  0  0  0  0  0
  -38.1020   21.0400    6.6100 C   0  0  0  0  0  0  0  0  0  0  0  0
  -37.0230   21.9790    7.1580 C   0  0  0  0  0  0  0  0  0  0  0  0
  -35.6640   21.8040    6.4750 C   0  0  0  0  0  0  0  0  0  0  0  0
  -35.8310   21.4550    4.9940 C   0  0  0  0  0  0  0  0  0  0  0  0
  -34.7220   20.5450    4.4560 C   0  0  0  0  0  0  0  0  0  0  0  0
  -33.3080   20.8480    4.9630 C   0  0  0  0  0  0  0  0  0  0  0  0
  -32.5740   19.6780    5.6260 C   0  0  0  0  0  0  0  0  0  0  0  0
  -32.5070   19.7870    7.1480 C   0  0  0  0  0  0  0  0  0  0  0  0
  -33.5940   18.9960    7.8870 C   0  0  0  0  0  0  0  0  0  0  0  0
  -33.7400   19.3300    9.3780 C   0  0  0  0  0  0  0  0  0  0  0  0
  -34.7980   20.4060    9.6420 C   0  0  0  0  0  0  0  0  0  0  0  0
  -34.5690   21.1810   10.9440 C   0  0  0  0  0  0  0  0  0  0  0  0
  -34.0610   22.6180   10.7900 C   0  0  0  0  0  0  0  0  0  0  0  0
  -33.8600   23.1060    9.3510 C   0  0  0  0  0  0  0  0  0  0  0  0
  -32.4070   23.4550    9.0190 C   0  0  0  0  0  0  0  0  0  0  0  0
  -32.3000   24.6800    8.1130 C   0  0  0  0  0  0  0  0  0  0  0  0
  -32.8740   24.4410    6.7440 C   0  0  0  0  0  0  0  0  0  0  0  0
  -33.9690   24.8040    6.3500 O   0  0  0  0  0  0  0  0  0  0  0  0
  -32.0340   23.7800    5.9260 O   0  0  0  0  0  0  0  0  0  0  0  0
  -38.6511   20.7480    8.6722 H   0  0  0  0  0  0  0  0  0  0  0  0
  -40.0344   21.0296    7.5615 H   0  0  0  0  0  0  0  0  0  0  0  0
  -39.1910   19.4436    7.5615 H   0  0  0  0  0  0  0  0  0  0  0  0
  -37.6070   20.1751    6.1444 H   0  0  0  0  0  0  0  0  0  0  0  0
  -38.6978   21.6182    5.8885 H   0  0  0  0  0  0  0  0  0  0  0  0
  -37.3563   23.0170    7.0115 H   0  0  0  0  0  0  0  0  0  0  0  0
  -36.8871   21.7335    8.2216 H   0  0  0  0  0  0  0  0  0  0  0  0
  -35.0956   22.7418    6.5610 H   0  0  0  0  0  0  0  0  0  0  0  0
  -35.1287   20.9800    6.9694 H   0  0  0  0  0  0  0  0  0  0  0  0
  -36.7962   20.9440    4.8626 H   0  0  0  0  0  0  0  0  0  0  0  0
  -35.7805   22.3979    4.4298 H   0  0  0  0  0  0  0  0  0  0  0  0
  -34.9675   19.5105    4.7380 H   0  0  0  0  0  0  0  0  0  0  0  0
  -34.6939   20.7172    3.3699 H   0  0  0  0  0  0  0  0  0  0  0  0
  -32.7059   21.1819    4.1051 H   0  0  0  0  0  0  0  0  0  0  0  0
  -33.4281   21.6094    5.7477 H   0  0  0  0  0  0  0  0  0  0  0  0
  -33.0973   18.7460    5.3660 H   0  0  0  0  0  0  0  0  0  0  0  0
  -31.5389   19.6919    5.2540 H   0  0  0  0  0  0  0  0  0  0  0  0
  -31.5259   19.4139    7.4771 H   0  0  0  0  0  0  0  0  0  0  0  0
  -32.6666   20.8470    7.3948 H   0  0  0  0  0  0  0  0  0  0  0  0
  -34.5571   19.1993    7.3960 H   0  0  0  0  0  0  0  0  0  0  0  0
  -33.2923   17.9394    7.8371 H   0  0  0  0  0  0  0  0  0  0  0  0
  -34.0265   18.4150    9.9172 H   0  0  0  0  0  0  0  0  0  0  0  0
  -32.7732   19.7220    9.7269 H   0  0  0  0  0  0  0  0  0  0  0  0
  -34.7854   21.1197    8.8050 H   0  0  0  0  0  0  0  0  0  0  0  0
  -35.7659   19.8921    9.7370 H   0  0  0  0  0  0  0  0  0  0  0  0
  -35.5255   21.2185   11.4859 H   0  0  0  0  0  0  0  0  0  0  0  0
  -33.7717   20.6400   11.4747 H   0  0  0  0  0  0  0  0  0  0  0  0
  -34.7883   23.2863   11.2741 H   0  0  0  0  0  0  0  0  0  0  0  0
  -33.0626   22.6320   11.2514 H   0  0  0  0  0  0  0  0  0  0  0  0
  -34.1924   22.3127    8.6653 H   0  0  0  0  0  0  0  0  0  0  0  0
  -34.4470   24.0295    9.2388 H   0  0  0  0  0  0  0  0  0  0  0  0
  -31.8689   23.6596    9.9563 H   0  0  0  0  0  0  0  0  0  0  0  0
  -31.9684   22.6000    8.4837 H   0  0  0  0  0  0  0  0  0  0  0  0
  -32.8438   25.5132    8.5821 H   0  0  0  0  0  0  0  0  0  0  0  0
  -31.2314   24.9098    7.9898 H   0  0  0  0  0  0  0  0  0  0  0  0
  1  2  1  0
  2  3  1  0
  3  4  1  0
  4  5  1  0
  5  6  1  0
  6  7  1  0
  7  8  1  0
  8  9  1  0
  9 10  1  0
 10 11  1  0
 11 12  1  0
 12 13  1  0
 13 14  1  0
 14 15  1  0
 15 16  1  0
 16 17  1  0
 17 18  1  0
 18 19  2  0
 18 20  1  0
  1 21  1  0
  1 22  1  0
  1 23  1  0
  2 24  1  0
  2 25  1  0
  3 26  1  0
  3 27  1  0
  4 28  1  0
  4 29  1  0
  5 30  1  0
  5 31  1  0
  6 32  1  0
  6 33  1  0
  7 34  1  0
  7 35  1  0
  8 36  1  0
  8 37  1  0
  9 38  1  0
  9 39  1  0
 10 40  1  0
 10 41  1  0
 11 42  1  0
 11 43  1  0
 12 44  1  0
 12 45  1  0
 13 46  1  0
 13 47  1  0
 14 48  1  0
 14 49  1  0
 15 50  1  0
 15 51  1  0
 16 52  1  0
 16 53  1  0
 17 54  1  0
 17 55  1  0
M  CHG  1  20  -1
M  END
>  <meeko>  (16) 
{"is_sidechain": [false], "free_energy": -5.779, "intermolecular_energy": -11.754, "internal_energy": -2.141}

$$$$
stearate_Nlobe_run02
     RDKit          3D

 55 54  0  0  0  0  0  0  0  0999 V2000
  -36.7970   24.2350    8.1070 C   0  0  0  0  0  0  0  0  0  0  0  0
  -36.0970   23.1980    7.2420 C   0  0  0  0  0  0  0  0  0  0  0  0
  -36.7950   21.8360    7.2350 C   0  0  0  0  0  0  0  0  0  0  0  0
  -36.2430   20.8780    6.1760 C   0  0  0  0  0  0  0  0  0  0  0  0
  -35.4270   21.6290    5.1220 C   0  0  0  0  0  0  0  0  0  0  0  0
  -34.2980   20.7900    4.5150 C   0  0  0  0  0  0  0  0  0  0  0  0
  -32.8940   21.0670    5.0630 C   0  0  0  0  0  0  0  0  0  0  0  0
  -32.8370   21.8180    6.3970 C   0  0  0  0  0  0  0  0  0  0  0  0
  -32.2740   23.2330    6.2750 C   0  0  0  0  0  0  0  0  0  0  0  0
  -32.2240   24.0100    7.5960 C   0  0  0  0  0  0  0  0  0  0  0  0
  -32.2840   23.1450    8.8620 C   0  0  0  0  0  0  0  0  0  0  0  0
  -33.5830   23.3390    9.6500 C   0  0  0  0  0  0  0  0  0  0  0  0
  -33.9090   22.1710   10.5860 C   0  0  0  0  0  0  0  0  0  0  0  0
  -34.8260   21.0860   10.0110 C   0  0  0  0  0  0  0  0  0  0  0  0
  -34.2390   19.6720    9.9610 C   0  0  0  0  0  0  0  0  0  0  0  0
  -33.8870   19.2020    8.5470 C   0  0  0  0  0  0  0  0  0  0  0  0
  -32.4050   18.8620    8.4030 C   0  0  0  0  0  0  0  0  0  0  0  0
  -32.0920   18.1710    7.1040 C   0  0  0  0  0  0  0  0  0  0  0  0
  -32.8910   17.8980    6.2250 O   0  0  0  0  0  0  0  0  0  0  0  0
  -30.7870   17.8780    6.9620 O   0  0  0  0  0  0  0  0  0  0  0  0
  -36.6358   23.9961    9.1686 H   0  0  0  0  0  0  0  0  0  0  0  0
  -36.3863   25.2319    7.8890 H   0  0  0  0  0  0  0  0  0  0  0  0
  -37.8751   24.2269    7.8890 H   0  0  0  0  0  0  0  0  0  0  0  0
  -36.0588   23.5748    6.2092 H   0  0  0  0  0  0  0  0  0  0  0  0
  -35.0945   23.0452    7.6682 H   0  0  0  0  0  0  0  0  0  0  0  0
  -36.6675   21.3733    8.2248 H   0  0  0  0  0  0  0  0  0  0  0  0
  -37.8534   22.0136    6.9936 H   0  0  0  0  0  0  0  0  0  0  0  0
  -35.5978   20.1343    6.6664 H   0  0  0  0  0  0  0  0  0  0  0  0
  -37.0903   20.3865    5.6754 H   0  0  0  0  0  0  0  0  0  0  0  0
  -36.1043   21.9396    4.3128 H   0  0  0  0  0  0  0  0  0  0  0  0
  -34.9588   22.4879    5.6251 H   0  0  0  0  0  0  0  0  0  0  0  0
  -34.5289   19.7302    4.6980 H   0  0  0  0  0  0  0  0  0  0  0  0
  -34.2625   21.0621    3.4498 H   0  0  0  0  0  0  0  0  0  0  0  0
  -32.3871   20.1001    5.1977 H   0  0  0  0  0  0  0  0  0  0  0  0
  -32.4100   21.7262    4.3273 H   0  0  0  0  0  0  0  0  0  0  0  0
  -33.8568   21.8827    6.8042 H   0  0  0  0  0  0  0  0  0  0  0  0
  -32.1599   21.2556    7.0567 H   0  0  0  0  0  0  0  0  0  0  0  0
  -31.2506   23.1632    5.8778 H   0  0  0  0  0  0  0  0  0  0  0  0
  -32.9545   23.7858    5.6107 H   0  0  0  0  0  0  0  0  0  0  0  0
  -31.2854   24.5832    7.6190 H   0  0  0  0  0  0  0  0  0  0  0  0
  -33.1238   24.6425    7.6139 H   0  0  0  0  0  0  0  0  0  0  0  0
  -32.2044   22.0875    8.5697 H   0  0  0  0  0  0  0  0  0  0  0  0
  -31.4518   23.4511    9.5130 H   0  0  0  0  0  0  0  0  0  0  0  0
  -33.4909   24.2539   10.2537 H   0  0  0  0  0  0  0  0  0  0  0  0
  -34.4002   23.4042    8.9165 H   0  0  0  0  0  0  0  0  0  0  0  0
  -32.9601   21.6933   10.8715 H   0  0  0  0  0  0  0  0  0  0  0  0
  -34.4622   22.6113   11.4287 H   0  0  0  0  0  0  0  0  0  0  0  0
  -35.7358   21.0517   10.6283 H   0  0  0  0  0  0  0  0  0  0  0  0
  -35.0049   21.3714    8.9639 H   0  0  0  0  0  0  0  0  0  0  0  0
  -33.3238   19.6540   10.5710 H   0  0  0  0  0  0  0  0  0  0  0  0
  -35.0117   18.9892   10.3440 H   0  0  0  0  0  0  0  0  0  0  0  0
  -34.4802   18.3054    8.3140 H   0  0  0  0  0  0  0  0  0  0  0  0
  -34.1134   20.0242    7.8522 H   0  0  0  0  0  0  0  0  0  0  0  0
  -31.8233   19.7942    8.4549 H   0  0  0  0  0  0  0  0  0  0  0  0
  -32.1413   18.1724    9.2184 H   0  0  0  0  0  0  0  0  0  0  0  0
  1  2  1  0
  2  3  1  0
  3  4  1  0
  4  5  1  0
  5  6  1  0
  6  7  1  0
  7  8  1  0
  8  9  1  0
  9 10  1  0
 10 11  1  0
 11 12  1  0
 12 13  1  0
 13 14  1  0
 14 15  1  0
 15 16  1  0
 16 17  1  0
 17 18  1  0
 18 19  2  0
 18 20  1  0
  1 21  1  0
  1 22  1  0
  1 23  1  0
  2 24  1  0
  2 25  1  0
  3 26  1  0
  3 27  1  0
  4 28  1  0
  4 29  1  0
  5 30  1  0
  5 31  1  0
  6 32  1  0
  6 33  1  0
  7 34  1  0
  7 35  1  0
  8 36  1  0
  8 37  1  0
  9 38  1  0
  9 39  1  0
 10 40  1  0
 10 41  1  0
 11 42  1  0
 11 43  1  0
 12 44  1  0
 12 45  1  0
 13 46  1  0
 13 47  1  0
 14 48  1  0
 14 49  1  0
 15 50  1  0
 15 51  1  0
 16 52  1  0
 16 53  1  0
 17 54  1  0
 17 55  1  0
M  CHG  1  20  -1
M  END
>  <meeko>  (17) 
{"is_sidechain": [false], "free_energy": -5.767, "intermolecular_energy": -11.162, "internal_energy": -2.709}

$$$$
stearate_Nlobe_run02
     RDKit          3D

 55 54  0  0  0  0  0  0  0  0999 V2000
  -33.6480   24.7110    6.6000 C   0  0  0  0  0  0  0  0  0  0  0  0
  -32.2230   24.8650    7.1110 C   0  0  0  0  0  0  0  0  0  0  0  0
  -32.0720   24.5590    8.6040 C   0  0  0  0  0  0  0  0  0  0  0  0
  -32.4750   23.1290    8.9730 C   0  0  0  0  0  0  0  0  0  0  0  0
  -33.3730   23.1100   10.2120 C   0  0  0  0  0  0  0  0  0  0  0  0
  -34.6440   22.2730   10.0290 C   0  0  0  0  0  0  0  0  0  0  0  0
  -35.2770   22.3230    8.6340 C   0  0  0  0  0  0  0  0  0  0  0  0
  -35.9130   21.0180    8.1450 C   0  0  0  0  0  0  0  0  0  0  0  0
  -37.3190   21.2030    7.5770 C   0  0  0  0  0  0  0  0  0  0  0  0
  -37.7370   20.1320    6.5620 C   0  0  0  0  0  0  0  0  0  0  0  0
  -37.9510   20.6410    5.1310 C   0  0  0  0  0  0  0  0  0  0  0  0
  -36.7380   20.3960    4.2280 C   0  0  0  0  0  0  0  0  0  0  0  0
  -35.5490   21.3100    4.5420 C   0  0  0  0  0  0  0  0  0  0  0  0
  -34.1660   20.7610    4.1760 C   0  0  0  0  0  0  0  0  0  0  0  0
  -33.0320   21.1060    5.1470 C   0  0  0  0  0  0  0  0  0  0  0  0
  -33.1330   20.3810    6.4920 C   0  0  0  0  0  0  0  0  0  0  0  0
  -31.7610   20.0250    7.0610 C   0  0  0  0  0  0  0  0  0  0  0  0
  -31.5220   18.5410    7.1110 C   0  0  0  0  0  0  0  0  0  0  0  0
  -31.3890   17.8680    8.1190 O   0  0  0  0  0  0  0  0  0  0  0  0
  -31.4860   17.9690    5.8940 O   0  0  0  0  0  0  0  0  0  0  0  0
  -34.3376   24.6365    7.4537 H   0  0  0  0  0  0  0  0  0  0  0  0
  -33.9147   25.5855    5.9884 H   0  0  0  0  0  0  0  0  0  0  0  0
  -33.7217   23.7997    5.9884 H   0  0  0  0  0  0  0  0  0  0  0  0
  -31.5750   24.1775    6.5476 H   0  0  0  0  0  0  0  0  0  0  0  0
  -31.9400   25.9181    6.9667 H   0  0  0  0  0  0  0  0  0  0  0  0
  -31.0195   24.7090    8.8864 H   0  0  0  0  0  0  0  0  0  0  0  0
  -32.7473   25.2377    9.1455 H   0  0  0  0  0  0  0  0  0  0  0  0
  -33.0188   22.6802    8.1287 H   0  0  0  0  0  0  0  0  0  0  0  0
  -31.5626   22.5560    9.1949 H   0  0  0  0  0  0  0  0  0  0  0  0
  -32.7988   22.6931   11.0526 H   0  0  0  0  0  0  0  0  0  0  0  0
  -33.6905   24.1464   10.3992 H   0  0  0  0  0  0  0  0  0  0  0  0
  -34.3931   21.2248   10.2490 H   0  0  0  0  0  0  0  0  0  0  0  0
  -35.3894   22.7059   10.7124 H   0  0  0  0  0  0  0  0  0  0  0  0
  -36.0591   23.0964    8.6455 H   0  0  0  0  0  0  0  0  0  0  0  0
  -34.4515   22.5330    7.9380 H   0  0  0  0  0  0  0  0  0  0  0  0
  -35.2728   20.5915    7.3587 H   0  0  0  0  0  0  0  0  0  0  0  0
  -36.0003   20.3530    9.0169 H   0  0  0  0  0  0  0  0  0  0  0  0
  -38.0335   21.1824    8.4131 H   0  0  0  0  0  0  0  0  0  0  0  0
  -37.3170   22.1624    7.0389 H   0  0  0  0  0  0  0  0  0  0  0  0
  -36.9519   19.3620    6.5361 H   0  0  0  0  0  0  0  0  0  0  0  0
  -38.7119   19.7519    6.9013 H   0  0  0  0  0  0  0  0  0  0  0  0
  -38.8207   20.1235    4.6999 H   0  0  0  0  0  0  0  0  0  0  0  0
  -38.1100   21.7281    5.1857 H   0  0  0  0  0  0  0  0  0  0  0  0
  -36.4166   19.3513    4.3521 H   0  0  0  0  0  0  0  0  0  0  0  0
  -37.0520   20.6156    3.1969 H   0  0  0  0  0  0  0  0  0  0  0  0
  -35.6938   22.2517    3.9922 H   0  0  0  0  0  0  0  0  0  0  0  0
  -35.5431   21.4244    5.6360 H   0  0  0  0  0  0  0  0  0  0  0  0
  -34.2418   19.6650    4.1217 H   0  0  0  0  0  0  0  0  0  0  0  0
  -33.8980   21.2394    3.2224 H   0  0  0  0  0  0  0  0  0  0  0  0
  -32.0761   20.8331    4.6760 H   0  0  0  0  0  0  0  0  0  0  0  0
  -33.1036   22.1836    5.3559 H   0  0  0  0  0  0  0  0  0  0  0  0
  -33.6547   21.0335    7.2076 H   0  0  0  0  0  0  0  0  0  0  0  0
  -33.6843   19.4432    6.3291 H   0  0  0  0  0  0  0  0  0  0  0  0
  -30.9874   20.4852    6.4287 H   0  0  0  0  0  0  0  0  0  0  0  0
  -31.7203   20.4036    8.0930 H   0  0  0  0  0  0  0  0  0  0  0  0
  1  2  1  0
  2  3  1  0
  3  4  1  0
  4  5  1  0
  5  6  1  0
  6  7  1  0
  7  8  1  0
  8  9  1  0
  9 10  1  0
 10 11  1  0
 11 12  1  0
 12 13  1  0
 13 14  1  0
 14 15  1  0
 15 16  1  0
 16 17  1  0
 17 18  1  0
 18 19  2  0
 18 20  1  0
  1 21  1  0
  1 22  1  0
  1 23  1  0
  2 24  1  0
  2 25  1  0
  3 26  1  0
  3 27  1  0
  4 28  1  0
  4 29  1  0
  5 30  1  0
  5 31  1  0
  6 32  1  0
  6 33  1  0
  7 34  1  0
  7 35  1  0
  8 36  1  0
  8 37  1  0
  9 38  1  0
  9 39  1  0
 10 40  1  0
 10 41  1  0
 11 42  1  0
 11 43  1  0
 12 44  1  0
 12 45  1  0
 13 46  1  0
 13 47  1  0
 14 48  1  0
 14 49  1  0
 15 50  1  0
 15 51  1  0
 16 52  1  0
 16 53  1  0
 17 54  1  0
 17 55  1  0
M  CHG  1  20  -1
M  END
>  <meeko>  (18) 
{"is_sidechain": [false], "free_energy": -5.726, "intermolecular_energy": -11.8, "internal_energy": -1.993}

$$$$
stearate_Nlobe_run02
     RDKit          3D

 55 54  0  0  0  0  0  0  0  0999 V2000
  -41.0360   21.4090    1.3800 C   0  0  0  0  0  0  0  0  0  0  0  0
  -40.4750   20.2730    2.2220 C   0  0  0  0  0  0  0  0  0  0  0  0
  -39.4940   20.7380    3.3010 C   0  0  0  0  0  0  0  0  0  0  0  0
  -38.0280   20.5060    2.9260 C   0  0  0  0  0  0  0  0  0  0  0  0
  -37.1360   20.4860    4.1700 C   0  0  0  0  0  0  0  0  0  0  0  0
  -37.9220   20.3830    5.4810 C   0  0  0  0  0  0  0  0  0  0  0  0
  -37.1790   20.8400    6.7400 C   0  0  0  0  0  0  0  0  0  0  0  0
  -36.1740   21.9790    6.5430 C   0  0  0  0  0  0  0  0  0  0  0  0
  -35.8340   22.7200    7.8350 C   0  0  0  0  0  0  0  0  0  0  0  0
  -35.3880   24.1730    7.6330 C   0  0  0  0  0  0  0  0  0  0  0  0
  -34.0630   24.3480    6.8810 C   0  0  0  0  0  0  0  0  0  0  0  0
  -33.0360   25.1630    7.6740 C   0  0  0  0  0  0  0  0  0  0  0  0
  -31.9650   24.3010    8.3520 C   0  0  0  0  0  0  0  0  0  0  0  0
  -32.3050   22.8160    8.5190 C   0  0  0  0  0  0  0  0  0  0  0  0
  -31.5750   21.8530    7.5780 C   0  0  0  0  0  0  0  0  0  0  0  0
  -32.5150   21.0080    6.7130 C   0  0  0  0  0  0  0  0  0  0  0  0
  -32.6610   21.5720    5.3010 C   0  0  0  0  0  0  0  0  0  0  0  0
  -32.8570   20.4980    4.2660 C   0  0  0  0  0  0  0  0  0  0  0  0
  -33.2940   20.6570    3.1390 O   0  0  0  0  0  0  0  0  0  0  0  0
  -32.4700   19.2800    4.6870 O   0  0  0  0  0  0  0  0  0  0  0  0
  -41.4254   22.1975    2.0408 H   0  0  0  0  0  0  0  0  0  0  0  0
  -40.2388   21.8232    0.7452 H   0  0  0  0  0  0  0  0  0  0  0  0
  -41.8494   21.0278    0.7452 H   0  0  0  0  0  0  0  0  0  0  0  0
  -41.3133   19.7570    2.7129 H   0  0  0  0  0  0  0  0  0  0  0  0
  -39.9178   19.6117    1.5421 H   0  0  0  0  0  0  0  0  0  0  0  0
  -39.6452   21.8144    3.4701 H   0  0  0  0  0  0  0  0  0  0  0  0
  -39.6974   20.1444    4.2044 H   0  0  0  0  0  0  0  0  0  0  0  0
  -37.9391   19.5413    2.4049 H   0  0  0  0  0  0  0  0  0  0  0  0
  -37.7000   21.3296    2.2748 H   0  0  0  0  0  0  0  0  0  0  0  0
  -36.4597   19.6213    4.1002 H   0  0  0  0  0  0  0  0  0  0  0  0
  -36.5898   21.4405    4.1931 H   0  0  0  0  0  0  0  0  0  0  0  0
  -38.8278   20.9991    5.3810 H   0  0  0  0  0  0  0  0  0  0  0  0
  -38.1243   19.3114    5.6253 H   0  0  0  0  0  0  0  0  0  0  0  0
  -37.9289   21.1741    7.4721 H   0  0  0  0  0  0  0  0  0  0  0  0
  -36.5879   19.9730    7.0699 H   0  0  0  0  0  0  0  0  0  0  0  0
  -35.2463   21.5574    6.1287 H   0  0  0  0  0  0  0  0  0  0  0  0
  -36.6396   22.7084    5.8639 H   0  0  0  0  0  0  0  0  0  0  0  0
  -36.7274   22.7204    8.4767 H   0  0  0  0  0  0  0  0  0  0  0  0
  -34.9823   22.1899    8.2862 H   0  0  0  0  0  0  0  0  0  0  0  0
  -36.1731   24.6948    7.0661 H   0  0  0  0  0  0  0  0  0  0  0  0
  -35.2261   24.5866    8.6394 H   0  0  0  0  0  0  0  0  0  0  0  0
  -33.6405   23.3532    6.6763 H   0  0  0  0  0  0  0  0  0  0  0  0
  -34.2780   24.8976    5.9527 H   0  0  0  0  0  0  0  0  0  0  0  0
  -32.5372   25.8602    6.9847 H   0  0  0  0  0  0  0  0  0  0  0  0
  -33.5836   25.6863    8.4717 H   0  0  0  0  0  0  0  0  0  0  0  0
  -31.0466   24.3705    7.7506 H   0  0  0  0  0  0  0  0  0  0  0  0
  -31.8658   24.6993    9.3725 H   0  0  0  0  0  0  0  0  0  0  0  0
  -32.0602   22.5282    9.5521 H   0  0  0  0  0  0  0  0  0  0  0  0
  -33.3723   22.7249    8.2689 H   0  0  0  0  0  0  0  0  0  0  0  0
  -30.9263   22.4420    6.9129 H   0  0  0  0  0  0  0  0  0  0  0  0
  -31.0051   21.1558    8.2097 H   0  0  0  0  0  0  0  0  0  0  0  0
  -32.1130   19.9862    6.6467 H   0  0  0  0  0  0  0  0  0  0  0  0
  -33.5085   21.0169    7.1851 H   0  0  0  0  0  0  0  0  0  0  0  0
  -33.5305   22.2454    5.2789 H   0  0  0  0  0  0  0  0  0  0  0  0
  -31.7295   22.1037    5.0569 H   0  0  0  0  0  0  0  0  0  0  0  0
  1  2  1  0
  2  3  1  0
  3  4  1  0
  4  5  1  0
  5  6  1  0
  6  7  1  0
  7  8  1  0
  8  9  1  0
  9 10  1  0
 10 11  1  0
 11 12  1  0
 12 13  1  0
 13 14  1  0
 14 15  1  0
 15 16  1  0
 16 17  1  0
 17 18  1  0
 18 19  2  0
 18 20  1  0
  1 21  1  0
  1 22  1  0
  1 23  1  0
  2 24  1  0
  2 25  1  0
  3 26  1  0
  3 27  1  0
  4 28  1  0
  4 29  1  0
  5 30  1  0
  5 31  1  0
  6 32  1  0
  6 33  1  0
  7 34  1  0
  7 35  1  0
  8 36  1  0
  8 37  1  0
  9 38  1  0
  9 39  1  0
 10 40  1  0
 10 41  1  0
 11 42  1  0
 11 43  1  0
 12 44  1  0
 12 45  1  0
 13 46  1  0
 13 47  1  0
 14 48  1  0
 14 49  1  0
 15 50  1  0
 15 51  1  0
 16 52  1  0
 16 53  1  0
 17 54  1  0
 17 55  1  0
M  CHG  1  20  -1
M  END
>  <meeko>  (19) 
{"is_sidechain": [false], "free_energy": -5.722, "intermolecular_energy": -12.278, "internal_energy": -1.507}

$$$$
stearate_Nlobe_run02
     RDKit          3D

 55 54  0  0  0  0  0  0  0  0999 V2000
  -39.4580   22.2010    7.3070 C   0  0  0  0  0  0  0  0  0  0  0  0
  -38.8650   20.8120    7.4830 C   0  0  0  0  0  0  0  0  0  0  0  0
  -37.6880   20.5260    6.5470 C   0  0  0  0  0  0  0  0  0  0  0  0
  -38.0910   20.4500    5.0720 C   0  0  0  0  0  0  0  0  0  0  0  0
  -36.8640   20.4990    4.1590 C   0  0  0  0  0  0  0  0  0  0  0  0
  -35.6680   21.2230    4.7870 C   0  0  0  0  0  0  0  0  0  0  0  0
  -34.3340   20.4710    4.7350 C   0  0  0  0  0  0  0  0  0  0  0  0
  -33.4100   20.6690    5.9410 C   0  0  0  0  0  0  0  0  0  0  0  0
  -33.2960   19.4320    6.8300 C   0  0  0  0  0  0  0  0  0  0  0  0
  -34.3850   19.3230    7.9050 C   0  0  0  0  0  0  0  0  0  0  0  0
  -33.9080   19.5770    9.3410 C   0  0  0  0  0  0  0  0  0  0  0  0
  -34.4500   20.8860    9.9220 C   0  0  0  0  0  0  0  0  0  0  0  0
  -35.4040   21.6250    8.9770 C   0  0  0  0  0  0  0  0  0  0  0  0
  -35.1160   23.1140    8.7620 C   0  0  0  0  0  0  0  0  0  0  0  0
  -35.2630   23.6230    7.3250 C   0  0  0  0  0  0  0  0  0  0  0  0
  -33.9910   24.2670    6.7670 C   0  0  0  0  0  0  0  0  0  0  0  0
  -33.1800   24.9760    7.8510 C   0  0  0  0  0  0  0  0  0  0  0  0
  -31.8330   24.3460    8.0720 C   0  0  0  0  0  0  0  0  0  0  0  0
  -30.9960   24.7050    8.8830 O   0  0  0  0  0  0  0  0  0  0  0  0
  -31.6100   23.2800    7.2820 O   0  0  0  0  0  0  0  0  0  0  0  0
  -39.6481   22.6464    8.2947 H   0  0  0  0  0  0  0  0  0  0  0  0
  -38.7514   22.8334    6.7495 H   0  0  0  0  0  0  0  0  0  0  0  0
  -40.4035   22.1281    6.7495 H   0  0  0  0  0  0  0  0  0  0  0  0
  -38.5161   20.7117    8.5214 H   0  0  0  0  0  0  0  0  0  0  0  0
  -39.6567   20.0892    7.2365 H   0  0  0  0  0  0  0  0  0  0  0  0
  -36.9452   21.3287    6.6650 H   0  0  0  0  0  0  0  0  0  0  0  0
  -37.2828   19.5418    6.8249 H   0  0  0  0  0  0  0  0  0  0  0  0
  -38.6316   19.5083    4.8960 H   0  0  0  0  0  0  0  0  0  0  0  0
  -38.7312   21.3143    4.8412 H   0  0  0  0  0  0  0  0  0  0  0  0
  -36.5630   19.4675    3.9234 H   0  0  0  0  0  0  0  0  0  0  0  0
  -37.1503   21.0637    3.2595 H   0  0  0  0  0  0  0  0  0  0  0  0
  -35.5374   22.1797    4.2601 H   0  0  0  0  0  0  0  0  0  0  0  0
  -35.9098   21.3311    5.8546 H   0  0  0  0  0  0  0  0  0  0  0  0
  -34.5551   19.3967    4.6519 H   0  0  0  0  0  0  0  0  0  0  0  0
  -33.7915   20.8839    3.8718 H   0  0  0  0  0  0  0  0  0  0  0  0
  -32.4062   20.9265    5.5721 H   0  0  0  0  0  0  0  0  0  0  0  0
  -33.8466   21.4702    6.5554 H   0  0  0  0  0  0  0  0  0  0  0  0
  -33.3551   18.5404    6.1885 H   0  0  0  0  0  0  0  0  0  0  0  0
  -32.3365   19.5142    7.3616 H   0  0  0  0  0  0  0  0  0  0  0  0
  -35.1696   20.0577    7.6713 H   0  0  0  0  0  0  0  0  0  0  0  0
  -34.7389   18.2818    7.8788 H   0  0  0  0  0  0  0  0  0  0  0  0
  -34.2448   18.7443    9.9760 H   0  0  0  0  0  0  0  0  0  0  0  0
  -32.8109   19.6535    9.3176 H   0  0  0  0  0  0  0  0  0  0  0  0
  -34.9898   20.6568   10.8526 H   0  0  0  0  0  0  0  0  0  0  0  0
  -33.5870   21.5465   10.0924 H   0  0  0  0  0  0  0  0  0  0  0  0
  -35.3583   21.1283    7.9966 H   0  0  0  0  0  0  0  0  0  0  0  0
  -36.3920   21.5804    9.4584 H   0  0  0  0  0  0  0  0  0  0  0  0
  -35.8101   23.6864    9.3950 H   0  0  0  0  0  0  0  0  0  0  0  0
  -34.0556   23.2524    9.0198 H   0  0  0  0  0  0  0  0  0  0  0  0
  -35.5329   22.7728    6.6813 H   0  0  0  0  0  0  0  0  0  0  0  0
  -36.0389   24.4026    7.3379 H   0  0  0  0  0  0  0  0  0  0  0  0
  -33.3668   23.4832    6.3132 H   0  0  0  0  0  0  0  0  0  0  0  0
  -34.2917   25.0197    6.0234 H   0  0  0  0  0  0  0  0  0  0  0  0
  -33.0336   26.0244    7.5521 H   0  0  0  0  0  0  0  0  0  0  0  0
  -33.7428   24.8968    8.7928 H   0  0  0  0  0  0  0  0  0  0  0  0
  1  2  1  0
  2  3  1  0
  3  4  1  0
  4  5  1  0
  5  6  1  0
  6  7  1  0
  7  8  1  0
  8  9  1  0
  9 10  1  0
 10 11  1  0
 11 12  1  0
 12 13  1  0
 13 14  1  0
 14 15  1  0
 15 16  1  0
 16 17  1  0
 17 18  1  0
 18 19  2  0
 18 20  1  0
  1 21  1  0
  1 22  1  0
  1 23  1  0
  2 24  1  0
  2 25  1  0
  3 26  1  0
  3 27  1  0
  4 28  1  0
  4 29  1  0
  5 30  1  0
  5 31  1  0
  6 32  1  0
  6 33  1  0
  7 34  1  0
  7 35  1  0
  8 36  1  0
  8 37  1  0
  9 38  1  0
  9 39  1  0
 10 40  1  0
 10 41  1  0
 11 42  1  0
 11 43  1  0
 12 44  1  0
 12 45  1  0
 13 46  1  0
 13 47  1  0
 14 48  1  0
 14 49  1  0
 15 50  1  0
 15 51  1  0
 16 52  1  0
 16 53  1  0
 17 54  1  0
 17 55  1  0
M  CHG  1  20  -1
M  END
>  <meeko>  (20) 
{"is_sidechain": [false], "free_energy": -5.63, "intermolecular_energy": -11.185, "internal_energy": -2.422}

$$$$
