NNH
     RDKit          3D

 24 23  0  0  1  0  0  0  0  0999 V2000
   25.9850   -9.8980   -2.9660 N   0  0  0  0  0  0  0  0  0  0  0  0
   25.5890   -9.8810   -4.3640 C   0  0  2  0  0  0  0  0  0  0  0  0
   24.1130   -9.4890   -4.5470 C   0  0  0  0  0  0  0  0  0  0  0  0
   23.3360   -9.2110   -3.6570 O   0  0  0  0  0  0  0  0  0  0  0  0
   25.8450  -11.2720   -4.9030 C   0  0  0  0  0  0  0  0  0  0  0  0
   25.0820  -12.5130   -4.5800 C   0  0  0  0  0  0  0  0  0  0  0  0
   25.3350  -13.6680   -5.4720 N   0  0  0  0  0  0  0  0  0  0  0  0
   25.3700  -14.9930   -5.1650 C   0  0  0  0  0  0  0  0  0  0  0  0
   25.1380  -15.4010   -3.8210 N   0  0  0  0  0  0  0  0  0  0  0  0
   25.6130  -15.9740   -6.0600 N   0  0  0  0  0  0  0  0  0  0  0  0
   25.1690  -16.6460   -3.5170 O   0  0  0  0  0  0  0  0  0  0  0  0
   23.7530   -9.4850   -5.8500 O   0  0  0  0  0  0  0  0  0  0  0  0
   25.1452   -9.8619   -2.3708 H   0  0  0  0  0  0  0  0  0  0  0  0
   26.5092  -10.7623   -2.7681 H   0  0  0  0  0  0  0  0  0  0  0  0
   26.1698   -9.1231   -4.9101 H   0  0  0  0  0  0  0  0  0  0  0  0
   25.7724  -11.1706   -5.9959 H   0  0  0  0  0  0  0  0  0  0  0  0
   26.7828  -11.4975   -4.3741 H   0  0  0  0  0  0  0  0  0  0  0  0
   25.3424  -12.8136   -3.5544 H   0  0  0  0  0  0  0  0  0  0  0  0
   24.0202  -12.2572   -4.7113 H   0  0  0  0  0  0  0  0  0  0  0  0
   25.5082  -13.4363   -6.4605 H   0  0  0  0  0  0  0  0  0  0  0  0
   24.9456  -14.6971   -3.0941 H   0  0  0  0  0  0  0  0  0  0  0  0
   25.6242  -16.9579   -5.7554 H   0  0  0  0  0  0  0  0  0  0  0  0
   25.1715  -16.7452   -2.5320 H   0  0  0  0  0  0  0  0  0  0  0  0
   22.8264   -9.2492   -6.1068 H   0  0  0  0  0  0  0  0  0  0  0  0
  1  2  1  0
  2  3  1  0
  2  5  1  0
  3  4  2  0
  3 12  1  0
  5  6  1  0
  6  7  1  0
  7  8  1  0
  8  9  1  0
  8 10  2  3
  9 11  1  0
  1 13  1  0
  1 14  1  0
  2 15  1  6
  5 16  1  0
  5 17  1  0
  6 18  1  0
  6 19  1  0
  7 20  1  0
  9 21  1  0
 10 22  1  0
 11 23  1  0
 12 24  1  0
M  END
>  <hydrogen_method>  (1) 
RDKit Chem.AddHs(addCoords=True)

>  <source_file>  (1) 
NNH_A901_RCSB_instance.sdf

$$$$
