puerarin_run03
     RDKit          3D

 50 53  0  0  0  0  0  0  0  0999 V2000
   29.5490  -10.2280  -11.3990 O   0  0  0  0  0  0  0  0  0  0  0  0
   29.3840  -10.5150  -10.2210 C   0  0  0  0  0  0  0  0  0  0  0  0
   30.5000  -10.9730   -9.3480 C   0  0  0  0  0  0  0  0  0  0  0  0
   31.8660  -11.1610   -9.8630 C   0  0  0  0  0  0  0  0  0  0  0  0
   32.7710  -10.0980   -9.8570 C   0  0  0  0  0  0  0  0  0  0  0  0
   34.0650  -10.2770  -10.3450 C   0  0  0  0  0  0  0  0  0  0  0  0
   34.4580  -11.5210  -10.8400 C   0  0  0  0  0  0  0  0  0  0  0  0
   35.7200  -11.6950  -11.3170 O   0  0  0  0  0  0  0  0  0  0  0  0
   33.5560  -12.5850  -10.8480 C   0  0  0  0  0  0  0  0  0  0  0  0
   32.2610  -12.4050  -10.3600 C   0  0  0  0  0  0  0  0  0  0  0  0
   30.2090  -11.2300   -8.0630 C   0  0  0  0  0  0  0  0  0  0  0  0
   28.9820  -11.1130   -7.4570 O   0  0  0  0  0  0  0  0  0  0  0  0
   27.9250  -10.7110   -8.2320 C   0  0  0  0  0  0  0  0  0  0  0  0
   26.6790  -10.6120   -7.6110 C   0  0  0  0  0  0  0  0  0  0  0  0
   26.5270  -10.9410   -6.1390 C   0  0  2  0  0  0  0  0  0  0  0  0
   25.8380  -12.1920   -6.0420 O   0  0  0  0  0  0  0  0  0  0  0  0
   25.7160  -12.6540   -4.6970 C   0  0  2  0  0  0  0  0  0  0  0  0
   25.0710  -14.0360   -4.7440 C   0  0  0  0  0  0  0  0  0  0  0  0
   23.7100  -13.9100   -4.3760 O   0  0  0  0  0  0  0  0  0  0  0  0
   24.8820  -11.6680   -3.8770 C   0  0  1  0  0  0  0  0  0  0  0  0
   24.8350  -12.1030   -2.5220 O   0  0  0  0  0  0  0  0  0  0  0  0
   25.4870  -10.2650   -3.9360 C   0  0  2  0  0  0  0  0  0  0  0  0
   24.5550   -9.3570   -3.3470 O   0  0  0  0  0  0  0  0  0  0  0  0
   25.7700   -9.8410   -5.3790 C   0  0  1  0  0  0  0  0  0  0  0  0
   26.5720   -8.6600   -5.3680 O   0  0  0  0  0  0  0  0  0  0  0  0
   25.5670  -10.2080   -8.3490 C   0  0  0  0  0  0  0  0  0  0  0  0
   24.3420  -10.1050   -7.7630 O   0  0  0  0  0  0  0  0  0  0  0  0
   25.6990   -9.9030   -9.7040 C   0  0  0  0  0  0  0  0  0  0  0  0
   26.9440  -10.0010  -10.3270 C   0  0  0  0  0  0  0  0  0  0  0  0
   28.0580  -10.4070   -9.5860 C   0  0  0  0  0  0  0  0  0  0  0  0
   32.4626   -9.1170   -9.4664 H   0  0  0  0  0  0  0  0  0  0  0  0
   34.7759   -9.4376  -10.3397 H   0  0  0  0  0  0  0  0  0  0  0  0
   36.2680  -10.9410  -11.0410 H   0  0  0  0  0  0  0  0  0  0  0  0
   33.8653  -13.5656  -11.2388 H   0  0  0  0  0  0  0  0  0  0  0  0
   31.5501  -13.2444  -10.3668 H   0  0  0  0  0  0  0  0  0  0  0  0
   31.0408  -11.5701   -7.4286 H   0  0  0  0  0  0  0  0  0  0  0  0
   27.5216  -11.0082   -5.6739 H   0  0  0  0  0  0  0  0  0  0  0  0
   26.6997  -12.7237   -4.2098 H   0  0  0  0  0  0  0  0  0  0  0  0
   25.1435  -14.4447   -5.7627 H   0  0  0  0  0  0  0  0  0  0  0  0
   25.5872  -14.7162   -4.0506 H   0  0  0  0  0  0  0  0  0  0  0  0
   23.2370  -14.6840   -4.7270 H   0  0  0  0  0  0  0  0  0  0  0  0
   23.8667  -11.6317   -4.2986 H   0  0  0  0  0  0  0  0  0  0  0  0
   24.5180  -11.3620   -1.9780 H   0  0  0  0  0  0  0  0  0  0  0  0
   26.4427  -10.2597   -3.3914 H   0  0  0  0  0  0  0  0  0  0  0  0
   23.7670   -9.3420   -3.9180 H   0  0  0  0  0  0  0  0  0  0  0  0
   24.8094   -9.6579   -5.8827 H   0  0  0  0  0  0  0  0  0  0  0  0
   27.3440   -8.8170   -5.9360 H   0  0  0  0  0  0  0  0  0  0  0  0
   23.7510   -9.5990   -8.3460 H   0  0  0  0  0  0  0  0  0  0  0  0
   24.8195   -9.5845  -10.2828 H   0  0  0  0  0  0  0  0  0  0  0  0
   27.0483   -9.7601  -11.3952 H   0  0  0  0  0  0  0  0  0  0  0  0
  1  2  2  0
  2  3  1  0
  3  4  1  0
  4  5  2  0
  5  6  1  0
  6  7  2  0
  7  8  1  0
  7  9  1  0
  9 10  2  0
  3 11  2  0
 11 12  1  0
 12 13  1  0
 13 14  2  0
 14 15  1  0
 15 16  1  0
 16 17  1  0
 17 18  1  0
 18 19  1  0
 17 20  1  0
 20 21  1  0
 20 22  1  0
 22 23  1  0
 22 24  1  0
 24 25  1  0
 14 26  1  0
 26 27  1  0
 26 28  2  0
 28 29  1  0
 29 30  2  0
 30  2  1  0
 10  4  1  0
 30 13  1  0
 24 15  1  0
  5 31  1  0
  6 32  1  0
  8 33  1  0
  9 34  1  0
 10 35  1  0
 11 36  1  0
 15 37  1  1
 17 38  1  1
 18 39  1  0
 18 40  1  0
 19 41  1  0
 20 42  1  6
 21 43  1  0
 22 44  1  1
 23 45  1  0
 24 46  1  6
 25 47  1  0
 27 48  1  0
 28 49  1  0
 29 50  1  0
M  END
>  <meeko>  (1) 
{"is_sidechain": [false], "free_energy": -7.286, "intermolecular_energy": -9.842, "internal_energy": -0.757}

$$$$
puerarin_run03
     RDKit          3D

 50 53  0  0  0  0  0  0  0  0999 V2000
   30.8790   -8.6510   -9.1980 O   0  0  0  0  0  0  0  0  0  0  0  0
   30.2020   -9.3490   -8.4540 C   0  0  0  0  0  0  0  0  0  0  0  0
   30.3560  -10.8290   -8.3890 C   0  0  0  0  0  0  0  0  0  0  0  0
   31.2980  -11.5530   -9.2580 C   0  0  0  0  0  0  0  0  0  0  0  0
   32.6720  -11.4790   -9.0190 C   0  0  0  0  0  0  0  0  0  0  0  0
   33.5640  -12.1660   -9.8420 C   0  0  0  0  0  0  0  0  0  0  0  0
   33.0840  -12.9290  -10.9080 C   0  0  0  0  0  0  0  0  0  0  0  0
   33.9550  -13.5980  -11.7120 O   0  0  0  0  0  0  0  0  0  0  0  0
   31.7120  -13.0040  -11.1490 C   0  0  0  0  0  0  0  0  0  0  0  0
   30.8200  -12.3170  -10.3250 C   0  0  0  0  0  0  0  0  0  0  0  0
   29.5830  -11.4890   -7.5140 C   0  0  0  0  0  0  0  0  0  0  0  0
   28.6560  -10.9450   -6.6590 O   0  0  0  0  0  0  0  0  0  0  0  0
   28.4720   -9.5870   -6.7020 C   0  0  0  0  0  0  0  0  0  0  0  0
   27.5150   -9.0450   -5.8410 C   0  0  0  0  0  0  0  0  0  0  0  0
   26.7260   -9.9420   -4.9090 C   0  0  2  0  0  0  0  0  0  0  0  0
   25.4230   -9.3690   -4.7530 O   0  0  0  0  0  0  0  0  0  0  0  0
   24.5530  -10.1800   -3.9640 C   0  0  2  0  0  0  0  0  0  0  0  0
   23.1780   -9.5180   -3.9720 C   0  0  0  0  0  0  0  0  0  0  0  0
   23.3530   -8.1170   -4.0790 O   0  0  0  0  0  0  0  0  0  0  0  0
   25.1070  -10.3160   -2.5440 C   0  0  1  0  0  0  0  0  0  0  0  0
   24.2690  -11.1890   -1.7930 O   0  0  0  0  0  0  0  0  0  0  0  0
   26.5290  -10.8780   -2.5680 C   0  0  2  0  0  0  0  0  0  0  0  0
   27.0670  -10.7710   -1.2500 O   0  0  0  0  0  0  0  0  0  0  0  0
   27.4170  -10.1040   -3.5460 C   0  0  1  0  0  0  0  0  0  0  0  0
   28.6360  -10.8230   -3.7340 O   0  0  0  0  0  0  0  0  0  0  0  0
   27.2840   -7.6700   -5.8400 C   0  0  0  0  0  0  0  0  0  0  0  0
   26.3560   -7.1200   -5.0090 O   0  0  0  0  0  0  0  0  0  0  0  0
   28.0070   -6.8370   -6.6950 C   0  0  0  0  0  0  0  0  0  0  0  0
   28.9640   -7.3770   -7.5560 C   0  0  0  0  0  0  0  0  0  0  0  0
   29.1940   -8.7560   -7.5560 C   0  0  0  0  0  0  0  0  0  0  0  0
   33.0515  -10.8775   -8.1798 H   0  0  0  0  0  0  0  0  0  0  0  0
   34.6457  -12.1067   -9.6512 H   0  0  0  0  0  0  0  0  0  0  0  0
   34.8620  -13.4190  -11.4110 H   0  0  0  0  0  0  0  0  0  0  0  0
   31.3333  -13.6049  -11.9889 H   0  0  0  0  0  0  0  0  0  0  0  0
   29.7384  -12.3772  -10.5160 H   0  0  0  0  0  0  0  0  0  0  0  0
   29.7043  -12.5817   -7.4772 H   0  0  0  0  0  0  0  0  0  0  0  0
   26.6572  -10.9508   -5.3422 H   0  0  0  0  0  0  0  0  0  0  0  0
   24.4744  -11.1969   -4.3759 H   0  0  0  0  0  0  0  0  0  0  0  0
   22.5946   -9.8853   -4.8292 H   0  0  0  0  0  0  0  0  0  0  0  0
   22.6384   -9.7601   -3.0445 H   0  0  0  0  0  0  0  0  0  0  0  0
   24.2840   -7.9530   -4.3060 H   0  0  0  0  0  0  0  0  0  0  0  0
   25.1299   -9.3195   -2.0787 H   0  0  0  0  0  0  0  0  0  0  0  0
   23.7900  -10.6560   -1.1360 H   0  0  0  0  0  0  0  0  0  0  0  0
   26.4992  -11.9263   -2.8999 H   0  0  0  0  0  0  0  0  0  0  0  0
   26.3420  -10.9480   -0.6260 H   0  0  0  0  0  0  0  0  0  0  0  0
   27.6112   -9.1059   -3.1265 H   0  0  0  0  0  0  0  0  0  0  0  0
   28.5060  -11.7250   -3.3970 H   0  0  0  0  0  0  0  0  0  0  0  0
   25.9810   -6.3280   -5.4290 H   0  0  0  0  0  0  0  0  0  0  0  0
   27.8224   -5.7526   -6.6905 H   0  0  0  0  0  0  0  0  0  0  0  0
   29.5339   -6.7212   -8.2306 H   0  0  0  0  0  0  0  0  0  0  0  0
  1  2  2  0
  2  3  1  0
  3  4  1  0
  4  5  2  0
  5  6  1  0
  6  7  2  0
  7  8  1  0
  7  9  1  0
  9 10  2  0
  3 11  2  0
 11 12  1  0
 12 13  1  0
 13 14  2  0
 14 15  1  0
 15 16  1  0
 16 17  1  0
 17 18  1  0
 18 19  1  0
 17 20  1  0
 20 21  1  0
 20 22  1  0
 22 23  1  0
 22 24  1  0
 24 25  1  0
 14 26  1  0
 26 27  1  0
 26 28  2  0
 28 29  1  0
 29 30  2  0
 30  2  1  0
 10  4  1  0
 30 13  1  0
 24 15  1  0
  5 31  1  0
  6 32  1  0
  8 33  1  0
  9 34  1  0
 10 35  1  0
 11 36  1  0
 15 37  1  6
 17 38  1  6
 18 39  1  0
 18 40  1  0
 19 41  1  0
 20 42  1  1
 21 43  1  0
 22 44  1  6
 23 45  1  0
 24 46  1  1
 25 47  1  0
 27 48  1  0
 28 49  1  0
 29 50  1  0
M  END
>  <meeko>  (2) 
{"is_sidechain": [false], "free_energy": -7.265, "intermolecular_energy": -9.691, "internal_energy": -0.879}

$$$$
puerarin_run03
     RDKit          3D

 50 53  0  0  0  0  0  0  0  0999 V2000
   29.4930   -9.1270  -11.1880 O   0  0  0  0  0  0  0  0  0  0  0  0
   29.3390   -9.4370  -10.0140 C   0  0  0  0  0  0  0  0  0  0  0  0
   30.4570   -9.4200   -9.0310 C   0  0  0  0  0  0  0  0  0  0  0  0
   31.8340   -9.0800   -9.4230 C   0  0  0  0  0  0  0  0  0  0  0  0
   32.2390   -7.7440   -9.4750 C   0  0  0  0  0  0  0  0  0  0  0  0
   33.5440   -7.4220   -9.8460 C   0  0  0  0  0  0  0  0  0  0  0  0
   34.4490   -8.4350  -10.1670 C   0  0  0  0  0  0  0  0  0  0  0  0
   35.7220   -8.1200  -10.5310 O   0  0  0  0  0  0  0  0  0  0  0  0
   34.0470   -9.7690  -10.1160 C   0  0  0  0  0  0  0  0  0  0  0  0
   32.7420  -10.0920   -9.7450 C   0  0  0  0  0  0  0  0  0  0  0  0
   30.1660   -9.7500   -7.7640 C   0  0  0  0  0  0  0  0  0  0  0  0
   28.9350  -10.1020   -7.2650 O   0  0  0  0  0  0  0  0  0  0  0  0
   27.8830  -10.1470   -8.1440 C   0  0  0  0  0  0  0  0  0  0  0  0
   26.6400  -10.5230   -7.6320 C   0  0  0  0  0  0  0  0  0  0  0  0
   26.4870  -10.8630   -6.1620 C   0  0  2  0  0  0  0  0  0  0  0  0
   25.8590  -12.1470   -6.0760 O   0  0  0  0  0  0  0  0  0  0  0  0
   25.7430  -12.6180   -4.7340 C   0  0  2  0  0  0  0  0  0  0  0  0
   25.1680  -14.0300   -4.7920 C   0  0  0  0  0  0  0  0  0  0  0  0
   23.7980  -13.9730   -4.4400 O   0  0  0  0  0  0  0  0  0  0  0  0
   24.8510  -11.6760   -3.9230 C   0  0  1  0  0  0  0  0  0  0  0  0
   24.8090  -12.1160   -2.5690 O   0  0  0  0  0  0  0  0  0  0  0  0
   25.3870  -10.2450   -3.9710 C   0  0  2  0  0  0  0  0  0  0  0  0
   24.4030   -9.3860   -3.3930 O   0  0  0  0  0  0  0  0  0  0  0  0
   25.6660   -9.8040   -5.4100 C   0  0  1  0  0  0  0  0  0  0  0  0
   26.4090   -8.5840   -5.3860 O   0  0  0  0  0  0  0  0  0  0  0  0
   25.5330  -10.5870   -8.4770 C   0  0  0  0  0  0  0  0  0  0  0  0
   24.3110  -10.9510   -7.9990 O   0  0  0  0  0  0  0  0  0  0  0  0
   25.6670  -10.2750   -9.8300 C   0  0  0  0  0  0  0  0  0  0  0  0
   26.9090   -9.8980  -10.3440 C   0  0  0  0  0  0  0  0  0  0  0  0
   28.0170   -9.8360   -9.4950 C   0  0  0  0  0  0  0  0  0  0  0  0
   31.5269   -6.9444   -9.2228 H   0  0  0  0  0  0  0  0  0  0  0  0
   33.8604   -6.3692   -9.8857 H   0  0  0  0  0  0  0  0  0  0  0  0
   36.3360   -8.7280  -10.0850 H   0  0  0  0  0  0  0  0  0  0  0  0
   34.7599  -10.5677  -10.3687 H   0  0  0  0  0  0  0  0  0  0  0  0
   32.4270  -11.1452   -9.7058 H   0  0  0  0  0  0  0  0  0  0  0  0
   31.0013   -9.7376   -7.0484 H   0  0  0  0  0  0  0  0  0  0  0  0
   27.4780  -10.8820   -5.6849 H   0  0  0  0  0  0  0  0  0  0  0  0
   26.7226  -12.6406   -4.2341 H   0  0  0  0  0  0  0  0  0  0  0  0
   25.2728  -14.4315   -5.8107 H   0  0  0  0  0  0  0  0  0  0  0  0
   25.7090  -14.6858   -4.0940 H   0  0  0  0  0  0  0  0  0  0  0  0
   23.3640  -14.7560   -4.8190 H   0  0  0  0  0  0  0  0  0  0  0  0
   23.8407  -11.6887   -4.3579 H   0  0  0  0  0  0  0  0  0  0  0  0
   24.3630  -12.9800   -2.5470 H   0  0  0  0  0  0  0  0  0  0  0  0
   26.3342  -10.1936   -3.4141 H   0  0  0  0  0  0  0  0  0  0  0  0
   23.8730   -9.0210   -4.1220 H   0  0  0  0  0  0  0  0  0  0  0  0
   24.7039   -9.6679   -5.9257 H   0  0  0  0  0  0  0  0  0  0  0  0
   26.4880   -8.2640   -6.3000 H   0  0  0  0  0  0  0  0  0  0  0  0
   23.7320  -11.1800   -8.7450 H   0  0  0  0  0  0  0  0  0  0  0  0
   24.7914  -10.3262  -10.4939 H   0  0  0  0  0  0  0  0  0  0  0  0
   27.0147   -9.6513  -11.4108 H   0  0  0  0  0  0  0  0  0  0  0  0
  1  2  2  0
  2  3  1  0
  3  4  1  0
  4  5  2  0
  5  6  1  0
  6  7  2  0
  7  8  1  0
  7  9  1  0
  9 10  2  0
  3 11  2  0
 11 12  1  0
 12 13  1  0
 13 14  2  0
 14 15  1  0
 15 16  1  0
 16 17  1  0
 17 18  1  0
 18 19  1  0
 17 20  1  0
 20 21  1  0
 20 22  1  0
 22 23  1  0
 22 24  1  0
 24 25  1  0
 14 26  1  0
 26 27  1  0
 26 28  2  0
 28 29  1  0
 29 30  2  0
 30  2  1  0
 10  4  1  0
 30 13  1  0
 24 15  1  0
  5 31  1  0
  6 32  1  0
  8 33  1  0
  9 34  1  0
 10 35  1  0
 11 36  1  0
 15 37  1  1
 17 38  1  1
 18 39  1  0
 18 40  1  0
 19 41  1  0
 20 42  1  6
 21 43  1  0
 22 44  1  1
 23 45  1  0
 24 46  1  6
 25 47  1  0
 27 48  1  0
 28 49  1  0
 29 50  1  0
M  END
>  <meeko>  (3) 
{"is_sidechain": [false], "free_energy": -7.163, "intermolecular_energy": -9.313, "internal_energy": -1.119}

$$$$
puerarin_run03
     RDKit          3D

 50 53  0  0  0  0  0  0  0  0999 V2000
   27.9920   -9.1690  -11.4370 O   0  0  0  0  0  0  0  0  0  0  0  0
   27.4660   -9.3920  -10.3540 C   0  0  0  0  0  0  0  0  0  0  0  0
   26.0570   -9.0150  -10.0590 C   0  0  0  0  0  0  0  0  0  0  0  0
   25.2200   -8.3000  -11.0360 C   0  0  0  0  0  0  0  0  0  0  0  0
   24.6250   -8.9940  -12.0910 C   0  0  0  0  0  0  0  0  0  0  0  0
   23.8320   -8.3160  -13.0170 C   0  0  0  0  0  0  0  0  0  0  0  0
   23.6330   -6.9400  -12.8900 C   0  0  0  0  0  0  0  0  0  0  0  0
   22.8600   -6.2790  -13.7940 O   0  0  0  0  0  0  0  0  0  0  0  0
   24.2260   -6.2450  -11.8370 C   0  0  0  0  0  0  0  0  0  0  0  0
   25.0190   -6.9230  -10.9110 C   0  0  0  0  0  0  0  0  0  0  0  0
   25.5750   -9.3360   -8.8490 C   0  0  0  0  0  0  0  0  0  0  0  0
   26.2460   -9.9860   -7.8410 O   0  0  0  0  0  0  0  0  0  0  0  0
   27.5530  -10.3330   -8.0680 C   0  0  0  0  0  0  0  0  0  0  0  0
   28.2310  -10.9770   -7.0310 C   0  0  0  0  0  0  0  0  0  0  0  0
   27.5300  -11.2670   -5.7190 C   0  0  2  0  0  0  0  0  0  0  0  0
   26.6140  -12.3450   -5.9450 O   0  0  0  0  0  0  0  0  0  0  0  0
   25.9570  -12.7720   -4.7520 C   0  0  2  0  0  0  0  0  0  0  0  0
   25.1050  -13.9860   -5.1080 C   0  0  0  0  0  0  0  0  0  0  0  0
   25.1600  -14.9050   -4.0320 O   0  0  0  0  0  0  0  0  0  0  0  0
   25.1090  -11.6320   -4.1840 C   0  0  1  0  0  0  0  0  0  0  0  0
   24.5230  -12.0490   -2.9540 O   0  0  0  0  0  0  0  0  0  0  0  0
   25.9640  -10.3890   -3.9390 C   0  0  2  0  0  0  0  0  0  0  0  0
   25.0880   -9.3050   -3.6270 O   0  0  0  0  0  0  0  0  0  0  0  0
   26.7950  -10.0330   -5.1750 C   0  0  1  0  0  0  0  0  0  0  0  0
   27.7640   -9.0470   -4.8140 O   0  0  0  0  0  0  0  0  0  0  0  0
   29.5620  -11.3550   -7.2040 C   0  0  0  0  0  0  0  0  0  0  0  0
   30.2430  -11.9840   -6.2060 O   0  0  0  0  0  0  0  0  0  0  0  0
   30.2140  -11.0920   -8.4090 C   0  0  0  0  0  0  0  0  0  0  0  0
   29.5370  -10.4480   -9.4470 C   0  0  0  0  0  0  0  0  0  0  0  0
   28.2040  -10.0700   -9.2720 C   0  0  0  0  0  0  0  0  0  0  0  0
   24.7818  -10.0780  -12.1924 H   0  0  0  0  0  0  0  0  0  0  0  0
   23.3636   -8.8654  -13.8470 H   0  0  0  0  0  0  0  0  0  0  0  0
   22.9530   -6.7080  -14.6620 H   0  0  0  0  0  0  0  0  0  0  0  0
   24.0685   -5.1610  -11.7362 H   0  0  0  0  0  0  0  0  0  0  0  0
   25.4867   -6.3728  -10.0813 H   0  0  0  0  0  0  0  0  0  0  0  0
   24.5335   -9.0489   -8.6419 H   0  0  0  0  0  0  0  0  0  0  0  0
   28.2751  -11.5425   -4.9581 H   0  0  0  0  0  0  0  0  0  0  0  0
   26.6840  -13.0486   -3.9742 H   0  0  0  0  0  0  0  0  0  0  0  0
   24.0640  -13.6725   -5.2753 H   0  0  0  0  0  0  0  0  0  0  0  0
   25.4858  -14.4574   -6.0260 H   0  0  0  0  0  0  0  0  0  0  0  0
   24.2810  -14.9240   -3.6160 H   0  0  0  0  0  0  0  0  0  0  0  0
   24.3243  -11.3812   -4.9129 H   0  0  0  0  0  0  0  0  0  0  0  0
   23.5640  -11.8980   -3.0120 H   0  0  0  0  0  0  0  0  0  0  0  0
   26.6607  -10.5861   -3.1109 H   0  0  0  0  0  0  0  0  0  0  0  0
   24.1850   -9.6640   -3.5940 H   0  0  0  0  0  0  0  0  0  0  0  0
   26.1177   -9.6515   -5.9533 H   0  0  0  0  0  0  0  0  0  0  0  0
   28.5760   -9.2290   -5.3160 H   0  0  0  0  0  0  0  0  0  0  0  0
   31.1980  -11.8850   -6.3600 H   0  0  0  0  0  0  0  0  0  0  0  0
   31.2638  -11.3926   -8.5419 H   0  0  0  0  0  0  0  0  0  0  0  0
   30.0508  -10.2397  -10.3970 H   0  0  0  0  0  0  0  0  0  0  0  0
  1  2  2  0
  2  3  1  0
  3  4  1  0
  4  5  2  0
  5  6  1  0
  6  7  2  0
  7  8  1  0
  7  9  1  0
  9 10  2  0
  3 11  2  0
 11 12  1  0
 12 13  1  0
 13 14  2  0
 14 15  1  0
 15 16  1  0
 16 17  1  0
 17 18  1  0
 18 19  1  0
 17 20  1  0
 20 21  1  0
 20 22  1  0
 22 23  1  0
 22 24  1  0
 24 25  1  0
 14 26  1  0
 26 27  1  0
 26 28  2  0
 28 29  1  0
 29 30  2  0
 30  2  1  0
 10  4  1  0
 30 13  1  0
 24 15  1  0
  5 31  1  0
  6 32  1  0
  8 33  1  0
  9 34  1  0
 10 35  1  0
 11 36  1  0
 15 37  1  1
 17 38  1  1
 18 39  1  0
 18 40  1  0
 19 41  1  0
 20 42  1  6
 21 43  1  0
 22 44  1  1
 23 45  1  0
 24 46  1  6
 25 47  1  0
 27 48  1  0
 28 49  1  0
 29 50  1  0
M  END
>  <meeko>  (4) 
{"is_sidechain": [false], "free_energy": -7.03, "intermolecular_energy": -9.843, "internal_energy": -0.41}

$$$$
puerarin_run03
     RDKit          3D

 50 53  0  0  0  0  0  0  0  0999 V2000
   28.4850   -9.1570  -11.6860 O   0  0  0  0  0  0  0  0  0  0  0  0
   27.7180   -9.2190  -10.7330 C   0  0  0  0  0  0  0  0  0  0  0  0
   26.3350   -8.6700  -10.7850 C   0  0  0  0  0  0  0  0  0  0  0  0
   25.8190   -7.9690  -11.9710 C   0  0  0  0  0  0  0  0  0  0  0  0
   24.8420   -8.5670  -12.7700 C   0  0  0  0  0  0  0  0  0  0  0  0
   24.3520   -7.9020  -13.8940 C   0  0  0  0  0  0  0  0  0  0  0  0
   24.8390   -6.6360  -14.2230 C   0  0  0  0  0  0  0  0  0  0  0  0
   24.3620   -5.9880  -15.3200 O   0  0  0  0  0  0  0  0  0  0  0  0
   25.8150   -6.0370  -13.4270 C   0  0  0  0  0  0  0  0  0  0  0  0
   26.3050   -6.7020  -12.3030 C   0  0  0  0  0  0  0  0  0  0  0  0
   25.5730   -8.8220   -9.6910 C   0  0  0  0  0  0  0  0  0  0  0  0
   25.9310   -9.4380   -8.5160 O   0  0  0  0  0  0  0  0  0  0  0  0
   27.2030   -9.9390   -8.4230 C   0  0  0  0  0  0  0  0  0  0  0  0
   27.5630  -10.5480   -7.2190 C   0  0  0  0  0  0  0  0  0  0  0  0
   26.5690  -10.6360   -6.0780 C   0  0  2  0  0  0  0  0  0  0  0  0
   27.3000  -10.4940   -4.8540 O   0  0  0  0  0  0  0  0  0  0  0  0
   26.4540  -10.4690   -3.7050 C   0  0  2  0  0  0  0  0  0  0  0  0
   27.3390  -10.2010   -2.4910 C   0  0  0  0  0  0  0  0  0  0  0  0
   28.6220   -9.8130   -2.9460 O   0  0  0  0  0  0  0  0  0  0  0  0
   25.7040  -11.7960   -3.5770 C   0  0  1  0  0  0  0  0  0  0  0  0
   24.8080  -11.7260   -2.4710 O   0  0  0  0  0  0  0  0  0  0  0  0
   24.9110  -12.0970   -4.8490 C   0  0  2  0  0  0  0  0  0  0  0  0
   24.4210  -13.4350   -4.7580 O   0  0  0  0  0  0  0  0  0  0  0  0
   25.7890  -11.9590   -6.0960 C   0  0  1  0  0  0  0  0  0  0  0  0
   24.9550  -11.9810   -7.2550 O   0  0  0  0  0  0  0  0  0  0  0  0
   28.8430  -11.0770   -7.0660 C   0  0  0  0  0  0  0  0  0  0  0  0
   29.2150  -11.6740   -5.9000 O   0  0  0  0  0  0  0  0  0  0  0  0
   29.7630  -11.0000   -8.1130 C   0  0  0  0  0  0  0  0  0  0  0  0
   29.4050  -10.3930   -9.3170 C   0  0  0  0  0  0  0  0  0  0  0  0
   28.1210   -9.8620   -9.4690 C   0  0  0  0  0  0  0  0  0  0  0  0
   24.4579   -9.5650  -12.5123 H   0  0  0  0  0  0  0  0  0  0  0  0
   23.5819   -8.3752  -14.5210 H   0  0  0  0  0  0  0  0  0  0  0  0
   24.3230   -6.6140  -16.0630 H   0  0  0  0  0  0  0  0  0  0  0  0
   26.1988   -5.0391  -13.6858 H   0  0  0  0  0  0  0  0  0  0  0  0
   27.0754   -6.2280  -11.6770 H   0  0  0  0  0  0  0  0  0  0  0  0
   24.5542   -8.4100   -9.7399 H   0  0  0  0  0  0  0  0  0  0  0  0
   25.8212   -9.8358   -6.1801 H   0  0  0  0  0  0  0  0  0  0  0  0
   25.6936   -9.6785   -3.7875 H   0  0  0  0  0  0  0  0  0  0  0  0
   26.9014   -9.3949   -1.8838 H   0  0  0  0  0  0  0  0  0  0  0  0
   27.4169  -11.1085   -1.8743 H   0  0  0  0  0  0  0  0  0  0  0  0
   28.6630   -8.8420   -2.9160 H   0  0  0  0  0  0  0  0  0  0  0  0
   26.4382  -12.6002   -3.4210 H   0  0  0  0  0  0  0  0  0  0  0  0
   24.1360  -11.0520   -2.6700 H   0  0  0  0  0  0  0  0  0  0  0  0
   24.0831  -11.3783   -4.9390 H   0  0  0  0  0  0  0  0  0  0  0  0
   24.1780  -13.7160   -5.6570 H   0  0  0  0  0  0  0  0  0  0  0  0
   26.5059  -12.7932   -6.1120 H   0  0  0  0  0  0  0  0  0  0  0  0
   25.1320  -11.1730   -7.7660 H   0  0  0  0  0  0  0  0  0  0  0  0
   29.9100  -12.3290   -6.0840 H   0  0  0  0  0  0  0  0  0  0  0  0
   30.7725  -11.4189   -7.9884 H   0  0  0  0  0  0  0  0  0  0  0  0
   30.1295  -10.3326  -10.1425 H   0  0  0  0  0  0  0  0  0  0  0  0
  1  2  2  0
  2  3  1  0
  3  4  1  0
  4  5  2  0
  5  6  1  0
  6  7  2  0
  7  8  1  0
  7  9  1  0
  9 10  2  0
  3 11  2  0
 11 12  1  0
 12 13  1  0
 13 14  2  0
 14 15  1  0
 15 16  1  0
 16 17  1  0
 17 18  1  0
 18 19  1  0
 17 20  1  0
 20 21  1  0
 20 22  1  0
 22 23  1  0
 22 24  1  0
 24 25  1  0
 14 26  1  0
 26 27  1  0
 26 28  2  0
 28 29  1  0
 29 30  2  0
 30  2  1  0
 10  4  1  0
 30 13  1  0
 24 15  1  0
  5 31  1  0
  6 32  1  0
  8 33  1  0
  9 34  1  0
 10 35  1  0
 11 36  1  0
 15 37  1  6
 17 38  1  6
 18 39  1  0
 18 40  1  0
 19 41  1  0
 20 42  1  1
 21 43  1  0
 22 44  1  6
 23 45  1  0
 24 46  1  6
 25 47  1  0
 27 48  1  0
 28 49  1  0
 29 50  1  0
M  END
>  <meeko>  (5) 
{"is_sidechain": [false], "free_energy": -6.98, "intermolecular_energy": -9.326, "internal_energy": -0.86}

$$$$
puerarin_run03
     RDKit          3D

 50 53  0  0  0  0  0  0  0  0999 V2000
   29.0550   -7.8880  -10.8870 O   0  0  0  0  0  0  0  0  0  0  0  0
   28.9180   -8.2520   -9.7260 C   0  0  0  0  0  0  0  0  0  0  0  0
   29.9170   -7.9350   -8.6680 C   0  0  0  0  0  0  0  0  0  0  0  0
   31.1610   -7.2080   -8.9630 C   0  0  0  0  0  0  0  0  0  0  0  0
   32.3070   -7.9070   -9.3490 C   0  0  0  0  0  0  0  0  0  0  0  0
   33.4870   -7.2170   -9.6290 C   0  0  0  0  0  0  0  0  0  0  0  0
   33.5240   -5.8260   -9.5250 C   0  0  0  0  0  0  0  0  0  0  0  0
   34.6750   -5.1540   -9.7970 O   0  0  0  0  0  0  0  0  0  0  0  0
   32.3810   -5.1260   -9.1400 C   0  0  0  0  0  0  0  0  0  0  0  0
   31.2010   -5.8160   -8.8590 C   0  0  0  0  0  0  0  0  0  0  0  0
   29.6480   -8.3590   -7.4230 C   0  0  0  0  0  0  0  0  0  0  0  0
   28.5380   -9.0570   -7.0120 O   0  0  0  0  0  0  0  0  0  0  0  0
   27.6050   -9.3840   -7.9610 C   0  0  0  0  0  0  0  0  0  0  0  0
   26.4900  -10.1090   -7.5360 C   0  0  0  0  0  0  0  0  0  0  0  0
   26.3420  -10.5060   -6.0810 C   0  0  2  0  0  0  0  0  0  0  0  0
   25.8440  -11.8480   -6.0460 O   0  0  0  0  0  0  0  0  0  0  0  0
   25.7500  -12.3690   -4.7200 C   0  0  2  0  0  0  0  0  0  0  0  0
   25.3200  -13.8290   -4.8310 C   0  0  0  0  0  0  0  0  0  0  0  0
   23.9360  -13.9140   -4.5440 O   0  0  0  0  0  0  0  0  0  0  0  0
   24.7520  -11.5460   -3.9030 C   0  0  1  0  0  0  0  0  0  0  0  0
   24.7280  -12.0290   -2.5630 O   0  0  0  0  0  0  0  0  0  0  0  0
   25.1430  -10.0670   -3.8990 C   0  0  2  0  0  0  0  0  0  0  0  0
   24.0670   -9.3280   -3.3190 O   0  0  0  0  0  0  0  0  0  0  0  0
   25.4050   -9.5570   -5.3180 C   0  0  1  0  0  0  0  0  0  0  0  0
   26.0210   -8.2710   -5.2430 O   0  0  0  0  0  0  0  0  0  0  0  0
   25.5060  -10.4690   -8.4570 C   0  0  0  0  0  0  0  0  0  0  0  0
   24.4110  -11.1760   -8.0640 O   0  0  0  0  0  0  0  0  0  0  0  0
   25.6350  -10.1060   -9.7980 C   0  0  0  0  0  0  0  0  0  0  0  0
   26.7490   -9.3810  -10.2240 C   0  0  0  0  0  0  0  0  0  0  0  0
   27.7340   -9.0210   -9.3000 C   0  0  0  0  0  0  0  0  0  0  0  0
   32.2792   -9.0035   -9.4324 H   0  0  0  0  0  0  0  0  0  0  0  0
   34.3885   -7.7698   -9.9319 H   0  0  0  0  0  0  0  0  0  0  0  0
   34.7170   -4.9760  -10.7520 H   0  0  0  0  0  0  0  0  0  0  0  0
   32.4095   -4.0294   -9.0578 H   0  0  0  0  0  0  0  0  0  0  0  0
   30.3005   -5.2622   -8.5549 H   0  0  0  0  0  0  0  0  0  0  0  0
   30.3947   -8.1228   -6.6506 H   0  0  0  0  0  0  0  0  0  0  0  0
   27.3199  -10.4405   -5.5817 H   0  0  0  0  0  0  0  0  0  0  0  0
   26.7171  -12.3090   -4.1993 H   0  0  0  0  0  0  0  0  0  0  0  0
   25.5105  -14.1952   -5.8506 H   0  0  0  0  0  0  0  0  0  0  0  0
   25.8904  -14.4445   -4.1198 H   0  0  0  0  0  0  0  0  0  0  0  0
   23.5650  -14.6240   -5.0940 H   0  0  0  0  0  0  0  0  0  0  0  0
   23.7566  -11.6463   -4.3602 H   0  0  0  0  0  0  0  0  0  0  0  0
   24.3390  -12.9200   -2.5720 H   0  0  0  0  0  0  0  0  0  0  0  0
   26.0693   -9.9385   -3.3198 H   0  0  0  0  0  0  0  0  0  0  0  0
   23.3410   -9.9550   -3.1560 H   0  0  0  0  0  0  0  0  0  0  0  0
   24.4445   -9.5015   -5.8513 H   0  0  0  0  0  0  0  0  0  0  0  0
   26.9820   -8.4030   -5.1890 H   0  0  0  0  0  0  0  0  0  0  0  0
   24.5620  -11.5320   -7.1720 H   0  0  0  0  0  0  0  0  0  0  0  0
   24.8570  -10.3918  -10.5212 H   0  0  0  0  0  0  0  0  0  0  0  0
   26.8512   -9.0945  -11.2811 H   0  0  0  0  0  0  0  0  0  0  0  0
  1  2  2  0
  2  3  1  0
  3  4  1  0
  4  5  2  0
  5  6  1  0
  6  7  2  0
  7  8  1  0
  7  9  1  0
  9 10  2  0
  3 11  2  0
 11 12  1  0
 12 13  1  0
 13 14  2  0
 14 15  1  0
 15 16  1  0
 16 17  1  0
 17 18  1  0
 18 19  1  0
 17 20  1  0
 20 21  1  0
 20 22  1  0
 22 23  1  0
 22 24  1  0
 24 25  1  0
 14 26  1  0
 26 27  1  0
 26 28  2  0
 28 29  1  0
 29 30  2  0
 30  2  1  0
 10  4  1  0
 30 13  1  0
 24 15  1  0
  5 31  1  0
  6 32  1  0
  8 33  1  0
  9 34  1  0
 10 35  1  0
 11 36  1  0
 15 37  1  1
 17 38  1  1
 18 39  1  0
 18 40  1  0
 19 41  1  0
 20 42  1  6
 21 43  1  0
 22 44  1  1
 23 45  1  0
 24 46  1  6
 25 47  1  0
 27 48  1  0
 28 49  1  0
 29 50  1  0
M  END
>  <meeko>  (6) 
{"is_sidechain": [false], "free_energy": -6.899, "intermolecular_energy": -8.917, "internal_energy": -1.159}

$$$$
puerarin_run03
     RDKit          3D

 50 53  0  0  0  0  0  0  0  0999 V2000
   28.4770  -11.6410   -6.6870 O   0  0  0  0  0  0  0  0  0  0  0  0
   27.7550  -10.8080   -7.2190 C   0  0  0  0  0  0  0  0  0  0  0  0
   26.6020  -10.1840   -6.5130 C   0  0  0  0  0  0  0  0  0  0  0  0
   26.2250  -10.5700   -5.1440 C   0  0  0  0  0  0  0  0  0  0  0  0
   26.9180  -10.0460   -4.0510 C   0  0  0  0  0  0  0  0  0  0  0  0
   26.5600  -10.4110   -2.7530 C   0  0  0  0  0  0  0  0  0  0  0  0
   25.5080  -11.3040   -2.5450 C   0  0  0  0  0  0  0  0  0  0  0  0
   25.1600  -11.6620   -1.2790 O   0  0  0  0  0  0  0  0  0  0  0  0
   24.8150  -11.8300   -3.6350 C   0  0  0  0  0  0  0  0  0  0  0  0
   25.1720  -11.4640   -4.9330 C   0  0  0  0  0  0  0  0  0  0  0  0
   25.8980   -9.2600   -7.1840 C   0  0  0  0  0  0  0  0  0  0  0  0
   26.1280   -8.8180   -8.4650 O   0  0  0  0  0  0  0  0  0  0  0  0
   27.1700   -9.3830   -9.1550 C   0  0  0  0  0  0  0  0  0  0  0  0
   27.3840   -8.9400  -10.4610 C   0  0  0  0  0  0  0  0  0  0  0  0
   26.4880   -7.8790  -11.0680 C   0  0  2  0  0  0  0  0  0  0  0  0
   26.6640   -6.6760  -10.3120 O   0  0  0  0  0  0  0  0  0  0  0  0
   25.9350   -5.5730  -10.8490 C   0  0  2  0  0  0  0  0  0  0  0  0
   26.2970   -4.3400  -10.0250 C   0  0  0  0  0  0  0  0  0  0  0  0
   25.2670   -4.1120   -9.0810 O   0  0  0  0  0  0  0  0  0  0  0  0
   24.4340   -5.8640  -10.8030 C   0  0  1  0  0  0  0  0  0  0  0  0
   23.7270   -4.7880  -11.4130 O   0  0  0  0  0  0  0  0  0  0  0  0
   24.1100   -7.1630  -11.5420 C   0  0  2  0  0  0  0  0  0  0  0  0
   22.7470   -7.4930  -11.2750 O   0  0  0  0  0  0  0  0  0  0  0  0
   25.0130   -8.3080  -11.0750 C   0  0  1  0  0  0  0  0  0  0  0  0
   24.8630   -9.4110  -11.9690 O   0  0  0  0  0  0  0  0  0  0  0  0
   28.4290   -9.4770  -11.2120 C   0  0  0  0  0  0  0  0  0  0  0  0
   28.6560   -9.0600  -12.4880 O   0  0  0  0  0  0  0  0  0  0  0  0
   29.2590  -10.4540  -10.6590 C   0  0  0  0  0  0  0  0  0  0  0  0
   29.0460  -10.8970   -9.3530 C   0  0  0  0  0  0  0  0  0  0  0  0
   27.9980  -10.3580   -8.6020 C   0  0  0  0  0  0  0  0  0  0  0  0
   27.7486   -9.3434   -4.2138 H   0  0  0  0  0  0  0  0  0  0  0  0
   27.1067   -9.9951   -1.8939 H   0  0  0  0  0  0  0  0  0  0  0  0
   25.8760  -12.1960   -0.8950 H   0  0  0  0  0  0  0  0  0  0  0  0
   23.9860  -12.5342   -3.4711 H   0  0  0  0  0  0  0  0  0  0  0  0
   24.6239  -11.8797   -5.7914 H   0  0  0  0  0  0  0  0  0  0  0  0
   25.0470   -8.8085   -6.6531 H   0  0  0  0  0  0  0  0  0  0  0  0
   26.7681   -7.7207  -12.1199 H   0  0  0  0  0  0  0  0  0  0  0  0
   26.1950   -5.3997  -11.9037 H   0  0  0  0  0  0  0  0  0  0  0  0
   27.2492   -4.5103   -9.5013 H   0  0  0  0  0  0  0  0  0  0  0  0
   26.4051   -3.4654  -10.6833 H   0  0  0  0  0  0  0  0  0  0  0  0
   24.5800   -3.5800   -9.5180 H   0  0  0  0  0  0  0  0  0  0  0  0
   24.1290   -5.9713   -9.7516 H   0  0  0  0  0  0  0  0  0  0  0  0
   22.7770   -4.9940  -11.3800 H   0  0  0  0  0  0  0  0  0  0  0  0
   24.2792   -7.0199  -12.6195 H   0  0  0  0  0  0  0  0  0  0  0  0
   22.4370   -8.0560  -12.0060 H   0  0  0  0  0  0  0  0  0  0  0  0
   24.7202   -8.5888  -10.0526 H   0  0  0  0  0  0  0  0  0  0  0  0
   23.9150   -9.6160  -12.0340 H   0  0  0  0  0  0  0  0  0  0  0  0
   27.8120   -8.8020  -12.8950 H   0  0  0  0  0  0  0  0  0  0  0  0
   30.0826  -10.8754  -11.2541 H   0  0  0  0  0  0  0  0  0  0  0  0
   29.6998  -11.6666   -8.9168 H   0  0  0  0  0  0  0  0  0  0  0  0
  1  2  2  0
  2  3  1  0
  3  4  1  0
  4  5  2  0
  5  6  1  0
  6  7  2  0
  7  8  1  0
  7  9  1  0
  9 10  2  0
  3 11  2  0
 11 12  1  0
 12 13  1  0
 13 14  2  0
 14 15  1  0
 15 16  1  0
 16 17  1  0
 17 18  1  0
 18 19  1  0
 17 20  1  0
 20 21  1  0
 20 22  1  0
 22 23  1  0
 22 24  1  0
 24 25  1  0
 14 26  1  0
 26 27  1  0
 26 28  2  0
 28 29  1  0
 29 30  2  0
 30  2  1  0
 10  4  1  0
 30 13  1  0
 24 15  1  0
  5 31  1  0
  6 32  1  0
  8 33  1  0
  9 34  1  0
 10 35  1  0
 11 36  1  0
 15 37  1  6
 17 38  1  6
 18 39  1  0
 18 40  1  0
 19 41  1  0
 20 42  1  1
 21 43  1  0
 22 44  1  6
 23 45  1  0
 24 46  1  1
 25 47  1  0
 27 48  1  0
 28 49  1  0
 29 50  1  0
M  END
>  <meeko>  (7) 
{"is_sidechain": [false], "free_energy": -6.855, "intermolecular_energy": -9.455, "internal_energy": -0.562}

$$$$
puerarin_run03
     RDKit          3D

 50 53  0  0  0  0  0  0  0  0999 V2000
   28.3660   -6.5260   -9.4740 O   0  0  0  0  0  0  0  0  0  0  0  0
   27.9380   -6.9990   -8.4290 C   0  0  0  0  0  0  0  0  0  0  0  0
   28.2320   -6.3940   -7.1010 C   0  0  0  0  0  0  0  0  0  0  0  0
   29.1030   -5.2170   -6.9560 C   0  0  0  0  0  0  0  0  0  0  0  0
   30.4780   -5.3790   -6.7790 C   0  0  0  0  0  0  0  0  0  0  0  0
   31.3030   -4.2620   -6.6420 C   0  0  0  0  0  0  0  0  0  0  0  0
   30.7540   -2.9800   -6.6820 C   0  0  0  0  0  0  0  0  0  0  0  0
   31.5590   -1.8910   -6.5470 O   0  0  0  0  0  0  0  0  0  0  0  0
   29.3810   -2.8160   -6.8590 C   0  0  0  0  0  0  0  0  0  0  0  0
   28.5560   -3.9320   -6.9960 C   0  0  0  0  0  0  0  0  0  0  0  0
   27.6850   -6.9800   -6.0250 C   0  0  0  0  0  0  0  0  0  0  0  0
   26.8700   -8.0860   -6.0130 O   0  0  0  0  0  0  0  0  0  0  0  0
   26.5920   -8.6830   -7.2160 C   0  0  0  0  0  0  0  0  0  0  0  0
   25.7780   -9.8170   -7.1920 C   0  0  0  0  0  0  0  0  0  0  0  0
   25.2390  -10.3470   -5.8790 C   0  0  2  0  0  0  0  0  0  0  0  0
   24.2380   -9.4320   -5.4180 O   0  0  0  0  0  0  0  0  0  0  0  0
   23.5890   -9.8750   -4.2270 C   0  0  2  0  0  0  0  0  0  0  0  0
   22.4790   -8.8760   -3.9110 C   0  0  0  0  0  0  0  0  0  0  0  0
   22.9440   -7.5750   -4.2200 O   0  0  0  0  0  0  0  0  0  0  0  0
   24.6010   -9.9760   -3.0840 C   0  0  1  0  0  0  0  0  0  0  0  0
   23.9540  -10.4930   -1.9260 O   0  0  0  0  0  0  0  0  0  0  0  0
   25.7610  -10.8960   -3.4670 C   0  0  2  0  0  0  0  0  0  0  0  0
   26.7700  -10.7740   -2.4630 O   0  0  0  0  0  0  0  0  0  0  0  0
   26.3480  -10.5160   -4.8290 C   0  0  1  0  0  0  0  0  0  0  0  0
   27.2300  -11.5520   -5.2600 O   0  0  0  0  0  0  0  0  0  0  0  0
   25.4590  -10.4660   -8.3840 C   0  0  0  0  0  0  0  0  0  0  0  0
   24.6670  -11.5740   -8.3840 O   0  0  0  0  0  0  0  0  0  0  0  0
   25.9510   -9.9840   -9.5980 C   0  0  0  0  0  0  0  0  0  0  0  0
   26.7650   -8.8500   -9.6240 C   0  0  0  0  0  0  0  0  0  0  0  0
   27.0830   -8.2010   -8.4280 C   0  0  0  0  0  0  0  0  0  0  0  0
   30.9121   -6.3892   -6.7474 H   0  0  0  0  0  0  0  0  0  0  0  0
   32.3863   -4.3922   -6.5025 H   0  0  0  0  0  0  0  0  0  0  0  0
   31.3730   -1.4660   -5.6930 H   0  0  0  0  0  0  0  0  0  0  0  0
   28.9479   -1.8053   -6.8906 H   0  0  0  0  0  0  0  0  0  0  0  0
   27.4729   -3.8004   -7.1358 H   0  0  0  0  0  0  0  0  0  0  0  0
   27.9133   -6.5269   -5.0490 H   0  0  0  0  0  0  0  0  0  0  0  0
   24.8081  -11.3467   -6.0367 H   0  0  0  0  0  0  0  0  0  0  0  0
   23.1553  -10.8771   -4.3601 H   0  0  0  0  0  0  0  0  0  0  0  0
   21.5897   -9.1057   -4.5164 H   0  0  0  0  0  0  0  0  0  0  0  0
   22.2092   -8.9368   -2.8463 H   0  0  0  0  0  0  0  0  0  0  0  0
   22.1920   -6.9650   -4.1300 H   0  0  0  0  0  0  0  0  0  0  0  0
   25.0003   -8.9719   -2.8783 H   0  0  0  0  0  0  0  0  0  0  0  0
   23.8350   -9.7620   -1.2950 H   0  0  0  0  0  0  0  0  0  0  0  0
   25.3946  -11.9308   -3.5374 H   0  0  0  0  0  0  0  0  0  0  0  0
   26.3170  -10.6800   -1.6080 H   0  0  0  0  0  0  0  0  0  0  0  0
   26.8857   -9.5622   -4.7233 H   0  0  0  0  0  0  0  0  0  0  0  0
   28.1140  -11.3600   -4.9040 H   0  0  0  0  0  0  0  0  0  0  0  0
   24.0840  -11.5490   -9.1610 H   0  0  0  0  0  0  0  0  0  0  0  0
   25.6968  -10.4987  -10.5363 H   0  0  0  0  0  0  0  0  0  0  0  0
   27.1537   -8.4697  -10.5802 H   0  0  0  0  0  0  0  0  0  0  0  0
  1  2  2  0
  2  3  1  0
  3  4  1  0
  4  5  2  0
  5  6  1  0
  6  7  2  0
  7  8  1  0
  7  9  1  0
  9 10  2  0
  3 11  2  0
 11 12  1  0
 12 13  1  0
 13 14  2  0
 14 15  1  0
 15 16  1  0
 16 17  1  0
 17 18  1  0
 18 19  1  0
 17 20  1  0
 20 21  1  0
 20 22  1  0
 22 23  1  0
 22 24  1  0
 24 25  1  0
 14 26  1  0
 26 27  1  0
 26 28  2  0
 28 29  1  0
 29 30  2  0
 30  2  1  0
 10  4  1  0
 30 13  1  0
 24 15  1  0
  5 31  1  0
  6 32  1  0
  8 33  1  0
  9 34  1  0
 10 35  1  0
 11 36  1  0
 15 37  1  6
 17 38  1  6
 18 39  1  0
 18 40  1  0
 19 41  1  0
 20 42  1  1
 21 43  1  0
 22 44  1  6
 23 45  1  0
 24 46  1  1
 25 47  1  0
 27 48  1  0
 28 49  1  0
 29 50  1  0
M  END
>  <meeko>  (8) 
{"is_sidechain": [false], "free_energy": -6.819, "intermolecular_energy": -9.647, "internal_energy": -0.321}

$$$$
puerarin_run03
     RDKit          3D

 50 53  0  0  0  0  0  0  0  0999 V2000
   28.5120  -10.1130  -11.4400 O   0  0  0  0  0  0  0  0  0  0  0  0
   28.6710  -10.4790  -10.2830 C   0  0  0  0  0  0  0  0  0  0  0  0
   29.8530  -11.2760   -9.8530 C   0  0  0  0  0  0  0  0  0  0  0  0
   30.8820  -11.7190  -10.8070 C   0  0  0  0  0  0  0  0  0  0  0  0
   31.8890  -10.8410  -11.2120 C   0  0  0  0  0  0  0  0  0  0  0  0
   32.8640  -11.2620  -12.1150 C   0  0  0  0  0  0  0  0  0  0  0  0
   32.8350  -12.5640  -12.6170 C   0  0  0  0  0  0  0  0  0  0  0  0
   33.7860  -12.9740  -13.5000 O   0  0  0  0  0  0  0  0  0  0  0  0
   31.8300  -13.4430  -12.2150 C   0  0  0  0  0  0  0  0  0  0  0  0
   30.8550  -13.0220  -11.3110 C   0  0  0  0  0  0  0  0  0  0  0  0
   29.9380  -11.5960   -8.5530 C   0  0  0  0  0  0  0  0  0  0  0  0
   29.0470  -11.2630   -7.5620 O   0  0  0  0  0  0  0  0  0  0  0  0
   27.9350  -10.5450   -7.9210 C   0  0  0  0  0  0  0  0  0  0  0  0
   27.0270  -10.2270   -6.9110 C   0  0  0  0  0  0  0  0  0  0  0  0
   27.2810  -10.6690   -5.4830 C   0  0  2  0  0  0  0  0  0  0  0  0
   26.0200  -10.7030   -4.8070 O   0  0  0  0  0  0  0  0  0  0  0  0
   26.1200  -11.1970   -3.4710 C   0  0  2  0  0  0  0  0  0  0  0  0
   24.7050  -11.2880   -2.9090 C   0  0  0  0  0  0  0  0  0  0  0  0
   24.4850  -10.1770   -2.0600 O   0  0  0  0  0  0  0  0  0  0  0  0
   27.0030  -10.2690   -2.6350 C   0  0  1  0  0  0  0  0  0  0  0  0
   27.1560  -10.8160   -1.3280 O   0  0  0  0  0  0  0  0  0  0  0  0
   28.3810  -10.1040   -3.2780 C   0  0  2  0  0  0  0  0  0  0  0  0
   29.0710   -9.0650   -2.5820 O   0  0  0  0  0  0  0  0  0  0  0  0
   28.2630   -9.7360   -4.7590 C   0  0  1  0  0  0  0  0  0  0  0  0
   29.5470   -9.8590   -5.3710 O   0  0  0  0  0  0  0  0  0  0  0  0
   25.8780   -9.4990   -7.2160 C   0  0  0  0  0  0  0  0  0  0  0  0
   24.9780   -9.1780   -6.2450 O   0  0  0  0  0  0  0  0  0  0  0  0
   25.6370   -9.0880   -8.5270 C   0  0  0  0  0  0  0  0  0  0  0  0
   26.5440   -9.4040   -9.5390 C   0  0  0  0  0  0  0  0  0  0  0  0
   27.6950  -10.1350   -9.2310 C   0  0  0  0  0  0  0  0  0  0  0  0
   31.9132   -9.8144  -10.8176 H   0  0  0  0  0  0  0  0  0  0  0  0
   33.6564  -10.5680  -12.4320 H   0  0  0  0  0  0  0  0  0  0  0  0
   33.4160  -13.6800  -14.0560 H   0  0  0  0  0  0  0  0  0  0  0  0
   31.8062  -14.4690  -12.6111 H   0  0  0  0  0  0  0  0  0  0  0  0
   30.0633  -13.7169  -10.9942 H   0  0  0  0  0  0  0  0  0  0  0  0
   30.8139  -12.1877   -8.2484 H   0  0  0  0  0  0  0  0  0  0  0  0
   27.7469  -11.6654   -5.4852 H   0  0  0  0  0  0  0  0  0  0  0  0
   26.5885  -12.1920   -3.4480 H   0  0  0  0  0  0  0  0  0  0  0  0
   23.9770  -11.2744   -3.7335 H   0  0  0  0  0  0  0  0  0  0  0  0
   24.5844  -12.2236   -2.3432 H   0  0  0  0  0  0  0  0  0  0  0  0
   25.2340  -10.1260   -1.4420 H   0  0  0  0  0  0  0  0  0  0  0  0
   26.5209   -9.2818   -2.5793 H   0  0  0  0  0  0  0  0  0  0  0  0
   26.9440  -11.7640   -1.3720 H   0  0  0  0  0  0  0  0  0  0  0  0
   28.9287  -11.0557   -3.2117 H   0  0  0  0  0  0  0  0  0  0  0  0
   28.7300   -9.0510   -1.6710 H   0  0  0  0  0  0  0  0  0  0  0  0
   27.8905   -8.7037   -4.8337 H   0  0  0  0  0  0  0  0  0  0  0  0
   29.4790  -10.5260   -6.0750 H   0  0  0  0  0  0  0  0  0  0  0  0
   24.2960   -8.5970   -6.6220 H   0  0  0  0  0  0  0  0  0  0  0  0
   24.7294   -8.5132   -8.7636 H   0  0  0  0  0  0  0  0  0  0  0  0
   26.3545   -9.0799  -10.5729 H   0  0  0  0  0  0  0  0  0  0  0  0
  1  2  2  0
  2  3  1  0
  3  4  1  0
  4  5  2  0
  5  6  1  0
  6  7  2  0
  7  8  1  0
  7  9  1  0
  9 10  2  0
  3 11  2  0
 11 12  1  0
 12 13  1  0
 13 14  2  0
 14 15  1  0
 15 16  1  0
 16 17  1  0
 17 18  1  0
 18 19  1  0
 17 20  1  0
 20 21  1  0
 20 22  1  0
 22 23  1  0
 22 24  1  0
 24 25  1  0
 14 26  1  0
 26 27  1  0
 26 28  2  0
 28 29  1  0
 29 30  2  0
 30  2  1  0
 10  4  1  0
 30 13  1  0
 24 15  1  0
  5 31  1  0
  6 32  1  0
  8 33  1  0
  9 34  1  0
 10 35  1  0
 11 36  1  0
 15 37  1  6
 17 38  1  6
 18 39  1  0
 18 40  1  0
 19 41  1  0
 20 42  1  1
 21 43  1  0
 22 44  1  6
 23 45  1  0
 24 46  1  1
 25 47  1  0
 27 48  1  0
 28 49  1  0
 29 50  1  0
M  END
>  <meeko>  (9) 
{"is_sidechain": [false], "free_energy": -6.767, "intermolecular_energy": -9.318, "internal_energy": -0.579}

$$$$
puerarin_run03
     RDKit          3D

 50 53  0  0  0  0  0  0  0  0999 V2000
   29.3910   -5.4460   -8.4230 O   0  0  0  0  0  0  0  0  0  0  0  0
   28.5170   -6.2780   -8.2180 C   0  0  0  0  0  0  0  0  0  0  0  0
   27.3660   -6.4710   -9.1420 C   0  0  0  0  0  0  0  0  0  0  0  0
   27.1770   -5.6330  -10.3370 C   0  0  0  0  0  0  0  0  0  0  0  0
   27.7530   -6.0060  -11.5530 C   0  0  0  0  0  0  0  0  0  0  0  0
   27.5740   -5.2120  -12.6860 C   0  0  0  0  0  0  0  0  0  0  0  0
   26.8180   -4.0410  -12.6050 C   0  0  0  0  0  0  0  0  0  0  0  0
   26.6440   -3.2660  -13.7100 O   0  0  0  0  0  0  0  0  0  0  0  0
   26.2420   -3.6660  -11.3910 C   0  0  0  0  0  0  0  0  0  0  0  0
   26.4220   -4.4610  -10.2590 C   0  0  0  0  0  0  0  0  0  0  0  0
   26.4840   -7.4340   -8.8330 C   0  0  0  0  0  0  0  0  0  0  0  0
   26.5290   -8.2740   -7.7470 O   0  0  0  0  0  0  0  0  0  0  0  0
   27.5640   -8.1150   -6.8620 C   0  0  0  0  0  0  0  0  0  0  0  0
   27.5910   -8.9620   -5.7530 C   0  0  0  0  0  0  0  0  0  0  0  0
   26.5080  -10.0050   -5.5570 C   0  0  2  0  0  0  0  0  0  0  0  0
   26.1150   -9.9700   -4.1810 O   0  0  0  0  0  0  0  0  0  0  0  0
   25.0290  -10.8500   -3.8930 C   0  0  2  0  0  0  0  0  0  0  0  0
   24.6380  -10.6340   -2.4340 C   0  0  0  0  0  0  0  0  0  0  0  0
   25.0240  -11.7750   -1.6900 O   0  0  0  0  0  0  0  0  0  0  0  0
   25.4440  -12.2990   -4.1580 C   0  0  1  0  0  0  0  0  0  0  0  0
   24.3270  -13.1560   -3.9410 O   0  0  0  0  0  0  0  0  0  0  0  0
   25.9370  -12.4670   -5.5960 C   0  0  2  0  0  0  0  0  0  0  0  0
   26.5130  -13.7690   -5.7150 O   0  0  0  0  0  0  0  0  0  0  0  0
   26.9860  -11.4110   -5.9520 C   0  0  1  0  0  0  0  0  0  0  0  0
   27.2110  -11.4370   -7.3620 O   0  0  0  0  0  0  0  0  0  0  0  0
   28.6200   -8.8480   -4.8190 C   0  0  0  0  0  0  0  0  0  0  0  0
   28.6660   -9.6640   -3.7290 O   0  0  0  0  0  0  0  0  0  0  0  0
   29.6210   -7.8920   -4.9930 C   0  0  0  0  0  0  0  0  0  0  0  0
   29.5960   -7.0440   -6.1020 C   0  0  0  0  0  0  0  0  0  0  0  0
   28.5630   -7.1600   -7.0360 C   0  0  0  0  0  0  0  0  0  0  0  0
   28.3493   -6.9281  -11.6178 H   0  0  0  0  0  0  0  0  0  0  0  0
   28.0284   -5.5084  -13.6429 H   0  0  0  0  0  0  0  0  0  0  0  0
   27.3230   -3.4980  -14.3670 H   0  0  0  0  0  0  0  0  0  0  0  0
   25.6461   -2.7437  -11.3264 H   0  0  0  0  0  0  0  0  0  0  0  0
   25.9679   -4.1638   -9.3022 H   0  0  0  0  0  0  0  0  0  0  0  0
   25.6361   -7.5644   -9.5215 H   0  0  0  0  0  0  0  0  0  0  0  0
   25.6541   -9.7745   -6.2110 H   0  0  0  0  0  0  0  0  0  0  0  0
   24.1648  -10.6399   -4.5404 H   0  0  0  0  0  0  0  0  0  0  0  0
   25.1509   -9.7440   -2.0406 H   0  0  0  0  0  0  0  0  0  0  0  0
   23.5513  -10.4829   -2.3542 H   0  0  0  0  0  0  0  0  0  0  0  0
   24.8990  -12.5530   -2.2590 H   0  0  0  0  0  0  0  0  0  0  0  0
   26.2624  -12.5618   -3.4716 H   0  0  0  0  0  0  0  0  0  0  0  0
   24.5110  -14.0070   -4.3760 H   0  0  0  0  0  0  0  0  0  0  0  0
   25.0896  -12.3437   -6.2864 H   0  0  0  0  0  0  0  0  0  0  0  0
   26.0830  -14.3370   -5.0530 H   0  0  0  0  0  0  0  0  0  0  0  0
   27.9115  -11.6391   -5.4030 H   0  0  0  0  0  0  0  0  0  0  0  0
   28.1710  -11.4720   -7.5110 H   0  0  0  0  0  0  0  0  0  0  0  0
   28.8210  -10.5780   -4.0210 H   0  0  0  0  0  0  0  0  0  0  0  0
   30.4319   -7.8061   -4.2547 H   0  0  0  0  0  0  0  0  0  0  0  0
   30.3844   -6.2894   -6.2396 H   0  0  0  0  0  0  0  0  0  0  0  0
  1  2  2  0
  2  3  1  0
  3  4  1  0
  4  5  2  0
  5  6  1  0
  6  7  2  0
  7  8  1  0
  7  9  1  0
  9 10  2  0
  3 11  2  0
 11 12  1  0
 12 13  1  0
 13 14  2  0
 14 15  1  0
 15 16  1  0
 16 17  1  0
 17 18  1  0
 18 19  1  0
 17 20  1  0
 20 21  1  0
 20 22  1  0
 22 23  1  0
 22 24  1  0
 24 25  1  0
 14 26  1  0
 26 27  1  0
 26 28  2  0
 28 29  1  0
 29 30  2  0
 30  2  1  0
 10  4  1  0
 30 13  1  0
 24 15  1  0
  5 31  1  0
  6 32  1  0
  8 33  1  0
  9 34  1  0
 10 35  1  0
 11 36  1  0
 15 37  1  6
 17 38  1  6
 18 39  1  0
 18 40  1  0
 19 41  1  0
 20 42  1  1
 21 43  1  0
 22 44  1  6
 23 45  1  0
 24 46  1  1
 25 47  1  0
 27 48  1  0
 28 49  1  0
 29 50  1  0
M  END
>  <meeko>  (10) 
{"is_sidechain": [false], "free_energy": -6.613, "intermolecular_energy": -8.55, "internal_energy": -1.14}

$$$$
puerarin_run03
     RDKit          3D

 50 53  0  0  0  0  0  0  0  0999 V2000
   28.5230  -11.2590   -6.7290 O   0  0  0  0  0  0  0  0  0  0  0  0
   27.5980  -10.7040   -7.3090 C   0  0  0  0  0  0  0  0  0  0  0  0
   26.3150  -10.3720   -6.6300 C   0  0  0  0  0  0  0  0  0  0  0  0
   26.0580  -10.7390   -5.2280 C   0  0  0  0  0  0  0  0  0  0  0  0
   26.6950  -10.0500   -4.1940 C   0  0  0  0  0  0  0  0  0  0  0  0
   26.4500  -10.3990   -2.8660 C   0  0  0  0  0  0  0  0  0  0  0  0
   25.5670  -11.4370   -2.5680 C   0  0  0  0  0  0  0  0  0  0  0  0
   25.3290  -11.7780   -1.2720 O   0  0  0  0  0  0  0  0  0  0  0  0
   24.9300  -12.1270   -3.5990 C   0  0  0  0  0  0  0  0  0  0  0  0
   25.1740  -11.7790   -4.9280 C   0  0  0  0  0  0  0  0  0  0  0  0
   25.3830   -9.7350   -7.3550 C   0  0  0  0  0  0  0  0  0  0  0  0
   25.4840   -9.3480   -8.6700 O   0  0  0  0  0  0  0  0  0  0  0  0
   26.6430   -9.6530   -9.3350 C   0  0  0  0  0  0  0  0  0  0  0  0
   26.7290   -9.2720  -10.6750 C   0  0  0  0  0  0  0  0  0  0  0  0
   25.5740   -8.5520  -11.3430 C   0  0  2  0  0  0  0  0  0  0  0  0
   25.5080   -9.0040  -12.7010 O   0  0  0  0  0  0  0  0  0  0  0  0
   24.3950   -8.4610  -13.4110 C   0  0  2  0  0  0  0  0  0  0  0  0
   24.3760   -9.1050  -14.7940 C   0  0  0  0  0  0  0  0  0  0  0  0
   25.6980   -9.4810  -15.1330 O   0  0  0  0  0  0  0  0  0  0  0  0
   24.5190   -6.9390  -13.4960 C   0  0  1  0  0  0  0  0  0  0  0  0
   23.3640   -6.4070  -14.1390 O   0  0  0  0  0  0  0  0  0  0  0  0
   24.6480   -6.3250  -12.1020 C   0  0  2  0  0  0  0  0  0  0  0  0
   24.9830   -4.9460  -12.2560 O   0  0  0  0  0  0  0  0  0  0  0  0
   25.7370   -7.0260  -11.2840 C   0  0  1  0  0  0  0  0  0  0  0  0
   25.6350   -6.6080   -9.9220 O   0  0  0  0  0  0  0  0  0  0  0  0
   27.8840   -9.5550  -11.4040 C   0  0  0  0  0  0  0  0  0  0  0  0
   27.9890   -9.1920  -12.7120 O   0  0  0  0  0  0  0  0  0  0  0  0
   28.9510  -10.2160  -10.7950 C   0  0  0  0  0  0  0  0  0  0  0  0
   28.8680  -10.5970   -9.4550 C   0  0  0  0  0  0  0  0  0  0  0  0
   27.7090  -10.3140   -8.7270 C   0  0  0  0  0  0  0  0  0  0  0  0
   27.3911   -9.2308   -4.4271 H   0  0  0  0  0  0  0  0  0  0  0  0
   26.9535   -9.8553   -2.0530 H   0  0  0  0  0  0  0  0  0  0  0  0
   24.6070  -11.2240   -0.9290 H   0  0  0  0  0  0  0  0  0  0  0  0
   24.2346  -12.9463   -3.3643 H   0  0  0  0  0  0  0  0  0  0  0  0
   24.6702  -12.3236   -5.7401 H   0  0  0  0  0  0  0  0  0  0  0  0
   24.4387   -9.4975   -6.8432 H   0  0  0  0  0  0  0  0  0  0  0  0
   24.6398   -8.7830  -10.8101 H   0  0  0  0  0  0  0  0  0  0  0  0
   23.4488   -8.6759  -12.8927 H   0  0  0  0  0  0  0  0  0  0  0  0
   23.7293   -9.9947  -14.7801 H   0  0  0  0  0  0  0  0  0  0  0  0
   23.9849   -8.3931  -15.5357 H   0  0  0  0  0  0  0  0  0  0  0  0
   26.0580   -8.7930  -15.7180 H   0  0  0  0  0  0  0  0  0  0  0  0
   25.4222   -6.6927  -14.0736 H   0  0  0  0  0  0  0  0  0  0  0  0
   22.8120   -7.1530  -14.4300 H   0  0  0  0  0  0  0  0  0  0  0  0
   23.6954   -6.4431  -11.5647 H   0  0  0  0  0  0  0  0  0  0  0  0
   25.5410   -4.8700  -13.0500 H   0  0  0  0  0  0  0  0  0  0  0  0
   26.7173   -6.7575  -11.7045 H   0  0  0  0  0  0  0  0  0  0  0  0
   24.8630   -6.0240   -9.8460 H   0  0  0  0  0  0  0  0  0  0  0  0
   28.3000   -9.9530  -13.2300 H   0  0  0  0  0  0  0  0  0  0  0  0
   29.8605  -10.4375  -11.3727 H   0  0  0  0  0  0  0  0  0  0  0  0
   29.7099  -11.1170   -8.9746 H   0  0  0  0  0  0  0  0  0  0  0  0
  1  2  2  0
  2  3  1  0
  3  4  1  0
  4  5  2  0
  5  6  1  0
  6  7  2  0
  7  8  1  0
  7  9  1  0
  9 10  2  0
  3 11  2  0
 11 12  1  0
 12 13  1  0
 13 14  2  0
 14 15  1  0
 15 16  1  0
 16 17  1  0
 17 18  1  0
 18 19  1  0
 17 20  1  0
 20 21  1  0
 20 22  1  0
 22 23  1  0
 22 24  1  0
 24 25  1  0
 14 26  1  0
 26 27  1  0
 26 28  2  0
 28 29  1  0
 29 30  2  0
 30  2  1  0
 10  4  1  0
 30 13  1  0
 24 15  1  0
  5 31  1  0
  6 32  1  0
  8 33  1  0
  9 34  1  0
 10 35  1  0
 11 36  1  0
 15 37  1  1
 17 38  1  1
 18 39  1  0
 18 40  1  0
 19 41  1  0
 20 42  1  6
 21 43  1  0
 22 44  1  1
 23 45  1  0
 24 46  1  6
 25 47  1  0
 27 48  1  0
 28 49  1  0
 29 50  1  0
M  END
>  <meeko>  (11) 
{"is_sidechain": [false], "free_energy": -6.565, "intermolecular_energy": -8.705, "internal_energy": -0.919}

$$$$
puerarin_run03
     RDKit          3D

 50 53  0  0  0  0  0  0  0  0999 V2000
   31.8940   -8.1290   -7.7470 O   0  0  0  0  0  0  0  0  0  0  0  0
   30.9760   -8.8920   -7.4760 C   0  0  0  0  0  0  0  0  0  0  0  0
   31.0420  -10.3530   -7.7590 C   0  0  0  0  0  0  0  0  0  0  0  0
   32.1980  -10.9640   -8.4350 C   0  0  0  0  0  0  0  0  0  0  0  0
   32.1800  -11.1580   -9.8180 C   0  0  0  0  0  0  0  0  0  0  0  0
   33.2760  -11.7370  -10.4580 C   0  0  0  0  0  0  0  0  0  0  0  0
   34.3930  -12.1230   -9.7170 C   0  0  0  0  0  0  0  0  0  0  0  0
   35.4610  -12.6890  -10.3420 O   0  0  0  0  0  0  0  0  0  0  0  0
   34.4130  -11.9300   -8.3360 C   0  0  0  0  0  0  0  0  0  0  0  0
   33.3180  -11.3510   -7.6950 C   0  0  0  0  0  0  0  0  0  0  0  0
   29.9900  -11.0980   -7.3910 C   0  0  0  0  0  0  0  0  0  0  0  0
   28.8450  -10.6590   -6.7690 O   0  0  0  0  0  0  0  0  0  0  0  0
   28.7390   -9.3170   -6.5080 C   0  0  0  0  0  0  0  0  0  0  0  0
   27.5650   -8.8780   -5.8930 C   0  0  0  0  0  0  0  0  0  0  0  0
   26.4690   -9.8640   -5.5400 C   0  0  2  0  0  0  0  0  0  0  0  0
   26.6310  -10.2180   -4.1620 O   0  0  0  0  0  0  0  0  0  0  0  0
   25.5950  -11.0770   -3.6860 C   0  0  2  0  0  0  0  0  0  0  0  0
   25.8210  -11.2830   -2.1920 C   0  0  0  0  0  0  0  0  0  0  0  0
   24.5930  -11.6660   -1.5990 O   0  0  0  0  0  0  0  0  0  0  0  0
   25.6190  -12.4020   -4.4510 C   0  0  1  0  0  0  0  0  0  0  0  0
   24.5320  -13.2150   -4.0180 O   0  0  0  0  0  0  0  0  0  0  0  0
   25.5020  -12.1620   -5.9560 C   0  0  2  0  0  0  0  0  0  0  0  0
   25.7540  -13.4010   -6.6210 O   0  0  0  0  0  0  0  0  0  0  0  0
   26.5100  -11.1130   -6.4330 C   0  0  1  0  0  0  0  0  0  0  0  0
   26.1840  -10.7300   -7.7690 O   0  0  0  0  0  0  0  0  0  0  0  0
   27.4000   -7.5250   -5.6020 C   0  0  0  0  0  0  0  0  0  0  0  0
   26.2630   -7.0740   -5.0030 O   0  0  0  0  0  0  0  0  0  0  0  0
   28.4050   -6.6110   -5.9240 C   0  0  0  0  0  0  0  0  0  0  0  0
   29.5800   -7.0490   -6.5380 C   0  0  0  0  0  0  0  0  0  0  0  0
   29.7430   -8.4060   -6.8300 C   0  0  0  0  0  0  0  0  0  0  0  0
   31.3000  -10.8537  -10.4037 H   0  0  0  0  0  0  0  0  0  0  0  0
   33.2594  -11.8892  -11.5473 H   0  0  0  0  0  0  0  0  0  0  0  0
   35.7490  -13.4650   -9.8310 H   0  0  0  0  0  0  0  0  0  0  0  0
   35.2936  -12.2348   -7.7515 H   0  0  0  0  0  0  0  0  0  0  0  0
   33.3362  -11.1989   -6.6057 H   0  0  0  0  0  0  0  0  0  0  0  0
   30.0490  -12.1744   -7.6098 H   0  0  0  0  0  0  0  0  0  0  0  0
   25.4872   -9.3975   -5.7085 H   0  0  0  0  0  0  0  0  0  0  0  0
   24.6025  -10.6316   -3.8492 H   0  0  0  0  0  0  0  0  0  0  0  0
   26.5705  -12.0728   -2.0358 H   0  0  0  0  0  0  0  0  0  0  0  0
   26.1854  -10.3514   -1.7345 H   0  0  0  0  0  0  0  0  0  0  0  0
   24.5850  -11.3190   -0.6910 H   0  0  0  0  0  0  0  0  0  0  0  0
   26.5748  -12.9076   -4.2489 H   0  0  0  0  0  0  0  0  0  0  0  0
   23.7150  -12.6960   -4.1060 H   0  0  0  0  0  0  0  0  0  0  0  0
   24.4938  -11.7868   -6.1856 H   0  0  0  0  0  0  0  0  0  0  0  0
   26.5710  -13.7700   -6.2440 H   0  0  0  0  0  0  0  0  0  0  0  0
   27.5182  -11.5504   -6.3856 H   0  0  0  0  0  0  0  0  0  0  0  0
   25.2160  -10.7020   -7.8450 H   0  0  0  0  0  0  0  0  0  0  0  0
   26.4960   -6.3980   -4.3440 H   0  0  0  0  0  0  0  0  0  0  0  0
   28.2709   -5.5438   -5.6935 H   0  0  0  0  0  0  0  0  0  0  0  0
   30.3732   -6.3299   -6.7906 H   0  0  0  0  0  0  0  0  0  0  0  0
  1  2  2  0
  2  3  1  0
  3  4  1  0
  4  5  2  0
  5  6  1  0
  6  7  2  0
  7  8  1  0
  7  9  1  0
  9 10  2  0
  3 11  2  0
 11 12  1  0
 12 13  1  0
 13 14  2  0
 14 15  1  0
 15 16  1  0
 16 17  1  0
 17 18  1  0
 18 19  1  0
 17 20  1  0
 20 21  1  0
 20 22  1  0
 22 23  1  0
 22 24  1  0
 24 25  1  0
 14 26  1  0
 26 27  1  0
 26 28  2  0
 28 29  1  0
 29 30  2  0
 30  2  1  0
 10  4  1  0
 30 13  1  0
 24 15  1  0
  5 31  1  0
  6 32  1  0
  8 33  1  0
  9 34  1  0
 10 35  1  0
 11 36  1  0
 15 37  1  1
 17 38  1  1
 18 39  1  0
 18 40  1  0
 19 41  1  0
 20 42  1  6
 21 43  1  0
 22 44  1  1
 23 45  1  0
 24 46  1  6
 25 47  1  0
 27 48  1  0
 28 49  1  0
 29 50  1  0
M  END
>  <meeko>  (12) 
{"is_sidechain": [false], "free_energy": -6.497, "intermolecular_energy": -9.432, "internal_energy": -0.101}

$$$$
puerarin_run03
     RDKit          3D

 50 53  0  0  0  0  0  0  0  0999 V2000
   27.7950   -7.6680   -5.7310 O   0  0  0  0  0  0  0  0  0  0  0  0
   28.0270   -8.6960   -6.3540 C   0  0  0  0  0  0  0  0  0  0  0  0
   27.3950   -9.9990   -6.0070 C   0  0  0  0  0  0  0  0  0  0  0  0
   26.4890  -10.1440   -4.8570 C   0  0  0  0  0  0  0  0  0  0  0  0
   26.9890  -10.5480   -3.6170 C   0  0  0  0  0  0  0  0  0  0  0  0
   26.1300  -10.6850   -2.5270 C   0  0  0  0  0  0  0  0  0  0  0  0
   24.7680  -10.4180   -2.6730 C   0  0  0  0  0  0  0  0  0  0  0  0
   23.9300  -10.5520   -1.6090 O   0  0  0  0  0  0  0  0  0  0  0  0
   24.2670  -10.0130   -3.9100 C   0  0  0  0  0  0  0  0  0  0  0  0
   25.1260   -9.8760   -5.0000 C   0  0  0  0  0  0  0  0  0  0  0  0
   27.6990  -11.0540   -6.7790 C   0  0  0  0  0  0  0  0  0  0  0  0
   28.5370  -11.0650   -7.8680 O   0  0  0  0  0  0  0  0  0  0  0  0
   29.1530   -9.8880   -8.2070 C   0  0  0  0  0  0  0  0  0  0  0  0
   30.0150   -9.9130   -9.3050 C   0  0  0  0  0  0  0  0  0  0  0  0
   30.2450  -11.2000  -10.0710 C   0  0  2  0  0  0  0  0  0  0  0  0
   31.6540  -11.3300  -10.2910 O   0  0  0  0  0  0  0  0  0  0  0  0
   32.0030  -12.5590  -10.9280 C   0  0  2  0  0  0  0  0  0  0  0  0
   33.5260  -12.6210  -10.9990 C   0  0  0  0  0  0  0  0  0  0  0  0
   33.9240  -13.9790  -10.9550 O   0  0  0  0  0  0  0  0  0  0  0  0
   31.3690  -12.6280  -12.3190 C   0  0  1  0  0  0  0  0  0  0  0  0
   31.6630  -13.8910  -12.9090 O   0  0  0  0  0  0  0  0  0  0  0  0
   29.8520  -12.4520  -12.2320 C   0  0  2  0  0  0  0  0  0  0  0  0
   29.3490  -12.3020  -13.5610 O   0  0  0  0  0  0  0  0  0  0  0  0
   29.4810  -11.2200  -11.4040 C   0  0  1  0  0  0  0  0  0  0  0  0
   28.0800  -11.2510  -11.1270 O   0  0  0  0  0  0  0  0  0  0  0  0
   30.6700   -8.7470   -9.6980 C   0  0  0  0  0  0  0  0  0  0  0  0
   31.5160   -8.7480  -10.7650 O   0  0  0  0  0  0  0  0  0  0  0  0
   30.4630   -7.5570   -8.9980 C   0  0  0  0  0  0  0  0  0  0  0  0
   29.6010   -7.5300   -7.9010 C   0  0  0  0  0  0  0  0  0  0  0  0
   28.9460   -8.7010   -7.5080 C   0  0  0  0  0  0  0  0  0  0  0  0
   28.0623  -10.7585   -3.5000 H   0  0  0  0  0  0  0  0  0  0  0  0
   26.5262  -11.0037   -1.5516 H   0  0  0  0  0  0  0  0  0  0  0  0
   24.4460  -10.8420   -0.8370 H   0  0  0  0  0  0  0  0  0  0  0  0
   23.1938   -9.8015   -4.0259 H   0  0  0  0  0  0  0  0  0  0  0  0
   24.7290   -9.5561   -5.9747 H   0  0  0  0  0  0  0  0  0  0  0  0
   27.2274  -12.0112   -6.5117 H   0  0  0  0  0  0  0  0  0  0  0  0
   29.8638  -12.0486   -9.4841 H   0  0  0  0  0  0  0  0  0  0  0  0
   31.6251  -13.4224  -10.3607 H   0  0  0  0  0  0  0  0  0  0  0  0
   33.8724  -12.1633  -11.9373 H   0  0  0  0  0  0  0  0  0  0  0  0
   33.9649  -12.0725  -10.1525 H   0  0  0  0  0  0  0  0  0  0  0  0
   33.2370  -14.5010  -11.4020 H   0  0  0  0  0  0  0  0  0  0  0  0
   31.7835  -11.8166  -12.9353 H   0  0  0  0  0  0  0  0  0  0  0  0
   32.5800  -13.8660  -13.2320 H   0  0  0  0  0  0  0  0  0  0  0  0
   29.4126  -13.3316  -11.7388 H   0  0  0  0  0  0  0  0  0  0  0  0
   28.5760  -12.8860  -13.6450 H   0  0  0  0  0  0  0  0  0  0  0  0
   29.7474  -10.3208  -11.9788 H   0  0  0  0  0  0  0  0  0  0  0  0
   27.8490  -12.1560  -10.8580 H   0  0  0  0  0  0  0  0  0  0  0  0
   31.7380   -9.6660  -10.9950 H   0  0  0  0  0  0  0  0  0  0  0  0
   30.9806   -6.6385   -9.3119 H   0  0  0  0  0  0  0  0  0  0  0  0
   29.4378   -6.5928   -7.3486 H   0  0  0  0  0  0  0  0  0  0  0  0
  1  2  2  0
  2  3  1  0
  3  4  1  0
  4  5  2  0
  5  6  1  0
  6  7  2  0
  7  8  1  0
  7  9  1  0
  9 10  2  0
  3 11  2  0
 11 12  1  0
 12 13  1  0
 13 14  2  0
 14 15  1  0
 15 16  1  0
 16 17  1  0
 17 18  1  0
 18 19  1  0
 17 20  1  0
 20 21  1  0
 20 22  1  0
 22 23  1  0
 22 24  1  0
 24 25  1  0
 14 26  1  0
 26 27  1  0
 26 28  2  0
 28 29  1  0
 29 30  2  0
 30  2  1  0
 10  4  1  0
 30 13  1  0
 24 15  1  0
  5 31  1  0
  6 32  1  0
  8 33  1  0
  9 34  1  0
 10 35  1  0
 11 36  1  0
 15 37  1  1
 17 38  1  1
 18 39  1  0
 18 40  1  0
 19 41  1  0
 20 42  1  6
 21 43  1  0
 22 44  1  1
 23 45  1  0
 24 46  1  6
 25 47  1  0
 27 48  1  0
 28 49  1  0
 29 50  1  0
M  END
>  <meeko>  (13) 
{"is_sidechain": [false], "free_energy": -6.467, "intermolecular_energy": -8.338, "internal_energy": -1.155}

$$$$
puerarin_run03
     RDKit          3D

 50 53  0  0  0  0  0  0  0  0999 V2000
   29.6060   -8.4930  -10.0170 O   0  0  0  0  0  0  0  0  0  0  0  0
   29.0010   -9.0800   -9.1290 C   0  0  0  0  0  0  0  0  0  0  0  0
   29.1900  -10.5330   -8.8610 C   0  0  0  0  0  0  0  0  0  0  0  0
   30.0800  -11.3680   -9.6830 C   0  0  0  0  0  0  0  0  0  0  0  0
   29.7670  -11.6210  -11.0200 C   0  0  0  0  0  0  0  0  0  0  0  0
   30.6110  -12.4120  -11.7990 C   0  0  0  0  0  0  0  0  0  0  0  0
   31.7700  -12.9540  -11.2430 C   0  0  0  0  0  0  0  0  0  0  0  0
   32.5920  -13.7270  -12.0030 O   0  0  0  0  0  0  0  0  0  0  0  0
   32.0850  -12.7030   -9.9070 C   0  0  0  0  0  0  0  0  0  0  0  0
   31.2410  -11.9110   -9.1280 C   0  0  0  0  0  0  0  0  0  0  0  0
   28.4970  -11.0640   -7.8420 C   0  0  0  0  0  0  0  0  0  0  0  0
   27.6240  -10.4080   -7.0080 O   0  0  0  0  0  0  0  0  0  0  0  0
   27.4100   -9.0730   -7.2350 C   0  0  0  0  0  0  0  0  0  0  0  0
   26.5080   -8.4190   -6.3930 C   0  0  0  0  0  0  0  0  0  0  0  0
   25.8090   -9.1770   -5.2820 C   0  0  2  0  0  0  0  0  0  0  0  0
   26.7920   -9.5080   -4.2960 O   0  0  0  0  0  0  0  0  0  0  0  0
   26.2320  -10.1480   -3.1490 C   0  0  2  0  0  0  0  0  0  0  0  0
   27.3580  -10.3410   -2.1370 C   0  0  0  0  0  0  0  0  0  0  0  0
   28.5340   -9.7440   -2.6520 O   0  0  0  0  0  0  0  0  0  0  0  0
   25.5960  -11.4800   -3.5500 C   0  0  1  0  0  0  0  0  0  0  0  0
   24.9750  -12.0670   -2.4100 O   0  0  0  0  0  0  0  0  0  0  0  0
   24.5480  -11.2740   -4.6450 C   0  0  2  0  0  0  0  0  0  0  0  0
   24.1570  -12.5590   -5.1290 O   0  0  0  0  0  0  0  0  0  0  0  0
   25.1090  -10.4420   -5.8010 C   0  0  1  0  0  0  0  0  0  0  0  0
   24.0330  -10.0510   -6.6560 O   0  0  0  0  0  0  0  0  0  0  0  0
   26.2490   -7.0620   -6.5760 C   0  0  0  0  0  0  0  0  0  0  0  0
   25.3740   -6.4040   -5.7660 O   0  0  0  0  0  0  0  0  0  0  0  0
   26.8900   -6.3570   -7.5960 C   0  0  0  0  0  0  0  0  0  0  0  0
   27.7920   -7.0090   -8.4380 C   0  0  0  0  0  0  0  0  0  0  0  0
   28.0490   -8.3700   -8.2540 C   0  0  0  0  0  0  0  0  0  0  0  0
   28.8529  -11.1956  -11.4597 H   0  0  0  0  0  0  0  0  0  0  0  0
   30.3627  -12.6087  -12.8524 H   0  0  0  0  0  0  0  0  0  0  0  0
   33.3050  -13.1710  -12.3610 H   0  0  0  0  0  0  0  0  0  0  0  0
   32.9989  -13.1296   -9.4680 H   0  0  0  0  0  0  0  0  0  0  0  0
   31.4903  -11.7139   -8.0749 H   0  0  0  0  0  0  0  0  0  0  0  0
   28.6432  -12.1380   -7.6545 H   0  0  0  0  0  0  0  0  0  0  0  0
   25.0205   -8.5452   -4.8471 H   0  0  0  0  0  0  0  0  0  0  0  0
   25.4358   -9.5358   -2.7004 H   0  0  0  0  0  0  0  0  0  0  0  0
   27.0862   -9.8631   -1.1843 H   0  0  0  0  0  0  0  0  0  0  0  0
   27.5264  -11.4138   -1.9615 H   0  0  0  0  0  0  0  0  0  0  0  0
   28.2730   -9.1780   -3.3980 H   0  0  0  0  0  0  0  0  0  0  0  0
   26.3838  -12.1430   -3.9370 H   0  0  0  0  0  0  0  0  0  0  0  0
   24.7420  -11.3530   -1.7920 H   0  0  0  0  0  0  0  0  0  0  0  0
   23.6879  -10.7308   -4.2266 H   0  0  0  0  0  0  0  0  0  0  0  0
   23.4600  -12.8920   -4.5370 H   0  0  0  0  0  0  0  0  0  0  0  0
   25.8422  -11.0535   -6.3474 H   0  0  0  0  0  0  0  0  0  0  0  0
   23.7150   -9.1830   -6.3570 H   0  0  0  0  0  0  0  0  0  0  0  0
   25.0510   -5.6090   -6.2230 H   0  0  0  0  0  0  0  0  0  0  0  0
   26.6838   -5.2857   -7.7364 H   0  0  0  0  0  0  0  0  0  0  0  0
   28.2979   -6.4545   -9.2421 H   0  0  0  0  0  0  0  0  0  0  0  0
  1  2  2  0
  2  3  1  0
  3  4  1  0
  4  5  2  0
  5  6  1  0
  6  7  2  0
  7  8  1  0
  7  9  1  0
  9 10  2  0
  3 11  2  0
 11 12  1  0
 12 13  1  0
 13 14  2  0
 14 15  1  0
 15 16  1  0
 16 17  1  0
 17 18  1  0
 18 19  1  0
 17 20  1  0
 20 21  1  0
 20 22  1  0
 22 23  1  0
 22 24  1  0
 24 25  1  0
 14 26  1  0
 26 27  1  0
 26 28  2  0
 28 29  1  0
 29 30  2  0
 30  2  1  0
 10  4  1  0
 30 13  1  0
 24 15  1  0
  5 31  1  0
  6 32  1  0
  8 33  1  0
  9 34  1  0
 10 35  1  0
 11 36  1  0
 15 37  1  1
 17 38  1  1
 18 39  1  0
 18 40  1  0
 19 41  1  0
 20 42  1  6
 21 43  1  0
 22 44  1  1
 23 45  1  0
 24 46  1  6
 25 47  1  0
 27 48  1  0
 28 49  1  0
 29 50  1  0
M  END
>  <meeko>  (14) 
{"is_sidechain": [false], "free_energy": -6.429, "intermolecular_energy": -9.196, "internal_energy": -0.245}

$$$$
puerarin_run03
     RDKit          3D

 50 53  0  0  0  0  0  0  0  0999 V2000
   31.6410   -9.9090   -9.9430 O   0  0  0  0  0  0  0  0  0  0  0  0
   30.4840  -10.0380   -9.5620 C   0  0  0  0  0  0  0  0  0  0  0  0
   29.4410  -10.7010  -10.3900 C   0  0  0  0  0  0  0  0  0  0  0  0
   29.7220  -11.1980  -11.7470 C   0  0  0  0  0  0  0  0  0  0  0  0
   29.5290  -10.3670  -12.8520 C   0  0  0  0  0  0  0  0  0  0  0  0
   29.7960  -10.8380  -14.1380 C   0  0  0  0  0  0  0  0  0  0  0  0
   30.2560  -12.1420  -14.3210 C   0  0  0  0  0  0  0  0  0  0  0  0
   30.5150  -12.6020  -15.5750 O   0  0  0  0  0  0  0  0  0  0  0  0
   30.4490  -12.9740  -13.2190 C   0  0  0  0  0  0  0  0  0  0  0  0
   30.1820  -12.5030  -11.9330 C   0  0  0  0  0  0  0  0  0  0  0  0
   28.2140  -10.8140   -9.8580 C   0  0  0  0  0  0  0  0  0  0  0  0
   27.8110  -10.3830   -8.6180 O   0  0  0  0  0  0  0  0  0  0  0  0
   28.7390   -9.7500   -7.8320 C   0  0  0  0  0  0  0  0  0  0  0  0
   28.3150   -9.3010   -6.5800 C   0  0  0  0  0  0  0  0  0  0  0  0
   26.8830   -9.5140   -6.1330 C   0  0  2  0  0  0  0  0  0  0  0  0
   26.4160   -8.2840   -5.5680 O   0  0  0  0  0  0  0  0  0  0  0  0
   25.0400   -8.3350   -5.1910 C   0  0  2  0  0  0  0  0  0  0  0  0
   24.6430   -6.9410   -4.7160 C   0  0  0  0  0  0  0  0  0  0  0  0
   23.2290   -6.8630   -4.6820 O   0  0  0  0  0  0  0  0  0  0  0  0
   24.8340   -9.3860   -4.0990 C   0  0  1  0  0  0  0  0  0  0  0  0
   23.4460   -9.4790   -3.7900 O   0  0  0  0  0  0  0  0  0  0  0  0
   25.3410  -10.7540   -4.5580 C   0  0  2  0  0  0  0  0  0  0  0  0
   25.3290  -11.6300   -3.4310 O   0  0  0  0  0  0  0  0  0  0  0  0
   26.7630  -10.6610   -5.1170 C   0  0  1  0  0  0  0  0  0  0  0  0
   27.0860  -11.8880   -5.7730 O   0  0  0  0  0  0  0  0  0  0  0  0
   29.2150   -8.6500   -5.7360 C   0  0  0  0  0  0  0  0  0  0  0  0
   28.8230   -8.2030   -4.5110 O   0  0  0  0  0  0  0  0  0  0  0  0
   30.5360   -8.4510   -6.1410 C   0  0  0  0  0  0  0  0  0  0  0  0
   30.9610   -8.9000   -7.3920 C   0  0  0  0  0  0  0  0  0  0  0  0
   30.0580   -9.5510   -8.2360 C   0  0  0  0  0  0  0  0  0  0  0  0
   29.1657   -9.3387  -12.7086 H   0  0  0  0  0  0  0  0  0  0  0  0
   29.6438  -10.1812  -15.0072 H   0  0  0  0  0  0  0  0  0  0  0  0
   30.2810  -11.9110  -16.2190 H   0  0  0  0  0  0  0  0  0  0  0  0
   30.8120  -14.0023  -13.3635 H   0  0  0  0  0  0  0  0  0  0  0  0
   30.3341  -13.1608  -11.0646 H   0  0  0  0  0  0  0  0  0  0  0  0
   27.4508  -11.3034  -10.4809 H   0  0  0  0  0  0  0  0  0  0  0  0
   26.2678   -9.8021   -6.9982 H   0  0  0  0  0  0  0  0  0  0  0  0
   24.4053   -8.6279   -6.0403 H   0  0  0  0  0  0  0  0  0  0  0  0
   25.0487   -6.7626   -3.7092 H   0  0  0  0  0  0  0  0  0  0  0  0
   25.0458   -6.1806   -5.4012 H   0  0  0  0  0  0  0  0  0  0  0  0
   22.9200   -6.7400   -5.5950 H   0  0  0  0  0  0  0  0  0  0  0  0
   25.4019   -9.0812   -3.2076 H   0  0  0  0  0  0  0  0  0  0  0  0
   22.9470   -9.0780   -4.5230 H   0  0  0  0  0  0  0  0  0  0  0  0
   24.6893  -11.1319   -5.3595 H   0  0  0  0  0  0  0  0  0  0  0  0
   24.9040  -11.1520   -2.6970 H   0  0  0  0  0  0  0  0  0  0  0  0
   27.4535  -10.4692   -4.2824 H   0  0  0  0  0  0  0  0  0  0  0  0
   26.3640  -12.5160   -5.6030 H   0  0  0  0  0  0  0  0  0  0  0  0
   29.5710   -7.7570   -4.0800 H   0  0  0  0  0  0  0  0  0  0  0  0
   31.2436   -7.9390   -5.4724 H   0  0  0  0  0  0  0  0  0  0  0  0
   32.0016   -8.7422   -7.7119 H   0  0  0  0  0  0  0  0  0  0  0  0
  1  2  2  0
  2  3  1  0
  3  4  1  0
  4  5  2  0
  5  6  1  0
  6  7  2  0
  7  8  1  0
  7  9  1  0
  9 10  2  0
  3 11  2  0
 11 12  1  0
 12 13  1  0
 13 14  2  0
 14 15  1  0
 15 16  1  0
 16 17  1  0
 17 18  1  0
 18 19  1  0
 17 20  1  0
 20 21  1  0
 20 22  1  0
 22 23  1  0
 22 24  1  0
 24 25  1  0
 14 26  1  0
 26 27  1  0
 26 28  2  0
 28 29  1  0
 29 30  2  0
 30  2  1  0
 10  4  1  0
 30 13  1  0
 24 15  1  0
  5 31  1  0
  6 32  1  0
  8 33  1  0
  9 34  1  0
 10 35  1  0
 11 36  1  0
 15 37  1  6
 17 38  1  6
 18 39  1  0
 18 40  1  0
 19 41  1  0
 20 42  1  1
 21 43  1  0
 22 44  1  6
 23 45  1  0
 24 46  1  1
 25 47  1  0
 27 48  1  0
 28 49  1  0
 29 50  1  0
M  END
>  <meeko>  (15) 
{"is_sidechain": [false], "free_energy": -6.224, "intermolecular_energy": -8.029, "internal_energy": -1.136}

$$$$
puerarin_run03
     RDKit          3D

 50 53  0  0  0  0  0  0  0  0999 V2000
   25.8410  -10.3550   -7.7700 O   0  0  0  0  0  0  0  0  0  0  0  0
   27.0480  -10.5290   -7.6610 C   0  0  0  0  0  0  0  0  0  0  0  0
   27.6820  -10.9410   -6.3790 C   0  0  0  0  0  0  0  0  0  0  0  0
   26.9010  -11.1140   -5.1440 C   0  0  0  0  0  0  0  0  0  0  0  0
   25.8970  -12.0820   -5.0780 C   0  0  0  0  0  0  0  0  0  0  0  0
   25.1570  -12.2460   -3.9070 C   0  0  0  0  0  0  0  0  0  0  0  0
   25.4190  -11.4410   -2.7980 C   0  0  0  0  0  0  0  0  0  0  0  0
   24.6960  -11.6000   -1.6560 O   0  0  0  0  0  0  0  0  0  0  0  0
   26.4220  -10.4740   -2.8610 C   0  0  0  0  0  0  0  0  0  0  0  0
   27.1620  -10.3100   -4.0320 C   0  0  0  0  0  0  0  0  0  0  0  0
   29.0100  -11.1330   -6.3840 C   0  0  0  0  0  0  0  0  0  0  0  0
   29.8590  -10.9930   -7.4550 O   0  0  0  0  0  0  0  0  0  0  0  0
   29.3160  -10.5960   -8.6490 C   0  0  0  0  0  0  0  0  0  0  0  0
   30.1890  -10.4400   -9.7270 C   0  0  0  0  0  0  0  0  0  0  0  0
   31.6720  -10.7030   -9.5570 C   0  0  2  0  0  0  0  0  0  0  0  0
   32.3790   -9.6750  -10.2590 O   0  0  0  0  0  0  0  0  0  0  0  0
   33.7940   -9.7640  -10.0950 C   0  0  2  0  0  0  0  0  0  0  0  0
   34.4140   -8.5570  -10.7920 C   0  0  0  0  0  0  0  0  0  0  0  0
   34.8210   -8.9470  -12.0910 O   0  0  0  0  0  0  0  0  0  0  0  0
   34.3080  -11.0810  -10.6800 C   0  0  1  0  0  0  0  0  0  0  0  0
   35.7080  -11.1900  -10.4380 O   0  0  0  0  0  0  0  0  0  0  0  0
   33.5920  -12.2730  -10.0440 C   0  0  2  0  0  0  0  0  0  0  0  0
   33.9470  -13.4440  -10.7810 O   0  0  0  0  0  0  0  0  0  0  0  0
   32.0730  -12.0920  -10.0760 C   0  0  1  0  0  0  0  0  0  0  0  0
   31.4690  -13.0820   -9.2430 O   0  0  0  0  0  0  0  0  0  0  0  0
   29.6940  -10.0380  -10.9670 C   0  0  0  0  0  0  0  0  0  0  0  0
   30.5280   -9.8790  -12.0320 O   0  0  0  0  0  0  0  0  0  0  0  0
   28.3300   -9.7950  -11.1310 C   0  0  0  0  0  0  0  0  0  0  0  0
   27.4550   -9.9520  -10.0550 C   0  0  0  0  0  0  0  0  0  0  0  0
   27.9530  -10.3530   -8.8130 C   0  0  0  0  0  0  0  0  0  0  0  0
   25.6890  -12.7170   -5.9518 H   0  0  0  0  0  0  0  0  0  0  0  0
   24.3670  -13.0099   -3.8579 H   0  0  0  0  0  0  0  0  0  0  0  0
   24.1000  -12.3600   -1.7650 H   0  0  0  0  0  0  0  0  0  0  0  0
   26.6297   -9.8400   -1.9864 H   0  0  0  0  0  0  0  0  0  0  0  0
   27.9523   -9.5464   -4.0798 H   0  0  0  0  0  0  0  0  0  0  0  0
   29.4671  -11.4343   -5.4299 H   0  0  0  0  0  0  0  0  0  0  0  0
   31.9263  -10.6886   -8.4869 H   0  0  0  0  0  0  0  0  0  0  0  0
   34.0718   -9.7560   -9.0307 H   0  0  0  0  0  0  0  0  0  0  0  0
   33.6719   -7.7482  -10.8631 H   0  0  0  0  0  0  0  0  0  0  0  0
   35.2804   -8.1953  -10.2188 H   0  0  0  0  0  0  0  0  0  0  0  0
   34.2080   -9.6370  -12.3960 H   0  0  0  0  0  0  0  0  0  0  0  0
   34.1088  -11.0863  -11.7618 H   0  0  0  0  0  0  0  0  0  0  0  0
   36.0150  -12.0280  -10.8230 H   0  0  0  0  0  0  0  0  0  0  0  0
   33.8971  -12.3593   -8.9907 H   0  0  0  0  0  0  0  0  0  0  0  0
   33.1300  -13.9520  -10.9290 H   0  0  0  0  0  0  0  0  0  0  0  0
   31.7320  -12.1943  -11.1168 H   0  0  0  0  0  0  0  0  0  0  0  0
   31.9340  -13.9220   -9.3920 H   0  0  0  0  0  0  0  0  0  0  0  0
   30.6890  -10.7450  -12.4440 H   0  0  0  0  0  0  0  0  0  0  0  0
   27.9431   -9.4788  -12.1110 H   0  0  0  0  0  0  0  0  0  0  0  0
   26.3794   -9.7611  -10.1843 H   0  0  0  0  0  0  0  0  0  0  0  0
  1  2  2  0
  2  3  1  0
  3  4  1  0
  4  5  2  0
  5  6  1  0
  6  7  2  0
  7  8  1  0
  7  9  1  0
  9 10  2  0
  3 11  2  0
 11 12  1  0
 12 13  1  0
 13 14  2  0
 14 15  1  0
 15 16  1  0
 16 17  1  0
 17 18  1  0
 18 19  1  0
 17 20  1  0
 20 21  1  0
 20 22  1  0
 22 23  1  0
 22 24  1  0
 24 25  1  0
 14 26  1  0
 26 27  1  0
 26 28  2  0
 28 29  1  0
 29 30  2  0
 30  2  1  0
 10  4  1  0
 30 13  1  0
 24 15  1  0
  5 31  1  0
  6 32  1  0
  8 33  1  0
  9 34  1  0
 10 35  1  0
 11 36  1  0
 15 37  1  1
 17 38  1  1
 18 39  1  0
 18 40  1  0
 19 41  1  0
 20 42  1  6
 21 43  1  0
 22 44  1  1
 23 45  1  0
 24 46  1  6
 25 47  1  0
 27 48  1  0
 28 49  1  0
 29 50  1  0
M  END
>  <meeko>  (16) 
{"is_sidechain": [false], "free_energy": -6.222, "intermolecular_energy": -8.146, "internal_energy": -1.015}

$$$$
puerarin_run03
     RDKit          3D

 50 53  0  0  0  0  0  0  0  0999 V2000
   26.3640   -6.7270   -5.2090 O   0  0  0  0  0  0  0  0  0  0  0  0
   26.2490   -7.4020   -6.2230 C   0  0  0  0  0  0  0  0  0  0  0  0
   25.8630   -8.8400   -6.1850 C   0  0  0  0  0  0  0  0  0  0  0  0
   25.6470   -9.5550   -4.9170 C   0  0  0  0  0  0  0  0  0  0  0  0
   26.7310  -10.0980   -4.2250 C   0  0  0  0  0  0  0  0  0  0  0  0
   26.5260  -10.7760   -3.0230 C   0  0  0  0  0  0  0  0  0  0  0  0
   25.2360  -10.9130   -2.5100 C   0  0  0  0  0  0  0  0  0  0  0  0
   25.0360  -11.5750   -1.3380 O   0  0  0  0  0  0  0  0  0  0  0  0
   24.1510  -10.3710   -3.2000 C   0  0  0  0  0  0  0  0  0  0  0  0
   24.3560   -9.6930   -4.4020 C   0  0  0  0  0  0  0  0  0  0  0  0
   25.7370   -9.4730   -7.3610 C   0  0  0  0  0  0  0  0  0  0  0  0
   25.9230   -8.9350   -8.6110 O   0  0  0  0  0  0  0  0  0  0  0  0
   26.2970   -7.6190   -8.6870 C   0  0  0  0  0  0  0  0  0  0  0  0
   26.5010   -7.0860   -9.9620 C   0  0  0  0  0  0  0  0  0  0  0  0
   26.3110   -7.9480  -11.1930 C   0  0  2  0  0  0  0  0  0  0  0  0
   27.4220   -7.7140  -12.0640 O   0  0  0  0  0  0  0  0  0  0  0  0
   27.4020   -8.5450  -13.2250 C   0  0  2  0  0  0  0  0  0  0  0  0
   28.6870   -8.2780  -14.0020 C   0  0  0  0  0  0  0  0  0  0  0  0
   29.0680   -9.4710  -14.6640 O   0  0  0  0  0  0  0  0  0  0  0  0
   26.1590   -8.2410  -14.0640 C   0  0  1  0  0  0  0  0  0  0  0  0
   26.1130   -9.1310  -15.1760 O   0  0  0  0  0  0  0  0  0  0  0  0
   24.8870   -8.4080  -13.2320 C   0  0  2  0  0  0  0  0  0  0  0  0
   23.7910   -7.9000  -13.9940 O   0  0  0  0  0  0  0  0  0  0  0  0
   24.9850   -7.6450  -11.9080 C   0  0  1  0  0  0  0  0  0  0  0  0
   23.9070   -8.0460  -11.0610 O   0  0  0  0  0  0  0  0  0  0  0  0
   26.8820   -5.7520  -10.1020 C   0  0  0  0  0  0  0  0  0  0  0  0
   27.0860   -5.2120  -11.3350 O   0  0  0  0  0  0  0  0  0  0  0  0
   27.0580   -4.9510   -8.9730 C   0  0  0  0  0  0  0  0  0  0  0  0
   26.8540   -5.4820   -7.6980 C   0  0  0  0  0  0  0  0  0  0  0  0
   26.4730   -6.8200   -7.5590 C   0  0  0  0  0  0  0  0  0  0  0  0
   27.7488   -9.9911   -4.6282 H   0  0  0  0  0  0  0  0  0  0  0  0
   27.3819  -11.2027   -2.4796 H   0  0  0  0  0  0  0  0  0  0  0  0
   25.9000  -11.8070   -0.9570 H   0  0  0  0  0  0  0  0  0  0  0  0
   23.1335  -10.4783   -2.7960 H   0  0  0  0  0  0  0  0  0  0  0  0
   23.4997   -9.2665   -4.9449 H   0  0  0  0  0  0  0  0  0  0  0  0
   25.4548  -10.5354   -7.3199 H   0  0  0  0  0  0  0  0  0  0  0  0
   26.2667   -9.0061  -10.8956 H   0  0  0  0  0  0  0  0  0  0  0  0
   27.3528   -9.6096  -12.9525 H   0  0  0  0  0  0  0  0  0  0  0  0
   28.5149   -7.4820  -14.7415 H   0  0  0  0  0  0  0  0  0  0  0  0
   29.4836   -7.9576  -13.3144 H   0  0  0  0  0  0  0  0  0  0  0  0
   29.4630  -10.0620  -14.0010 H   0  0  0  0  0  0  0  0  0  0  0  0
   26.2169   -7.1993  -14.4127 H   0  0  0  0  0  0  0  0  0  0  0  0
   25.3630   -9.7370  -15.0460 H   0  0  0  0  0  0  0  0  0  0  0  0
   24.7449   -9.4731  -12.9965 H   0  0  0  0  0  0  0  0  0  0  0  0
   22.9740   -8.1920  -13.5550 H   0  0  0  0  0  0  0  0  0  0  0  0
   24.9362   -6.5671  -12.1218 H   0  0  0  0  0  0  0  0  0  0  0  0
   23.2730   -8.5460  -11.6010 H   0  0  0  0  0  0  0  0  0  0  0  0
   27.2320   -4.2550  -11.2450 H   0  0  0  0  0  0  0  0  0  0  0  0
   27.3581   -3.8990   -9.0878 H   0  0  0  0  0  0  0  0  0  0  0  0
   26.9923   -4.8511   -6.8076 H   0  0  0  0  0  0  0  0  0  0  0  0
  1  2  2  0
  2  3  1  0
  3  4  1  0
  4  5  2  0
  5  6  1  0
  6  7  2  0
  7  8  1  0
  7  9  1  0
  9 10  2  0
  3 11  2  0
 11 12  1  0
 12 13  1  0
 13 14  2  0
 14 15  1  0
 15 16  1  0
 16 17  1  0
 17 18  1  0
 18 19  1  0
 17 20  1  0
 20 21  1  0
 20 22  1  0
 22 23  1  0
 22 24  1  0
 24 25  1  0
 14 26  1  0
 26 27  1  0
 26 28  2  0
 28 29  1  0
 29 30  2  0
 30  2  1  0
 10  4  1  0
 30 13  1  0
 24 15  1  0
  5 31  1  0
  6 32  1  0
  8 33  1  0
  9 34  1  0
 10 35  1  0
 11 36  1  0
 15 37  1  1
 17 38  1  1
 18 39  1  0
 18 40  1  0
 19 41  1  0
 20 42  1  6
 21 43  1  0
 22 44  1  1
 23 45  1  0
 24 46  1  6
 25 47  1  0
 27 48  1  0
 28 49  1  0
 29 50  1  0
M  END
>  <meeko>  (17) 
{"is_sidechain": [false], "free_energy": -6.17, "intermolecular_energy": -7.949, "internal_energy": -1.142}

$$$$
puerarin_run03
     RDKit          3D

 50 53  0  0  0  0  0  0  0  0999 V2000
   25.9290   -8.9710   -6.9780 O   0  0  0  0  0  0  0  0  0  0  0  0
   26.9140   -8.8920   -6.2560 C   0  0  0  0  0  0  0  0  0  0  0  0
   27.2830   -9.9630   -5.2900 C   0  0  0  0  0  0  0  0  0  0  0  0
   26.4540  -11.1640   -5.1040 C   0  0  0  0  0  0  0  0  0  0  0  0
   26.6450  -12.2820   -5.9180 C   0  0  0  0  0  0  0  0  0  0  0  0
   25.8590  -13.4210   -5.7410 C   0  0  0  0  0  0  0  0  0  0  0  0
   24.8780  -13.4440   -4.7490 C   0  0  0  0  0  0  0  0  0  0  0  0
   24.1110  -14.5540   -4.5770 O   0  0  0  0  0  0  0  0  0  0  0  0
   24.6850  -12.3290   -3.9340 C   0  0  0  0  0  0  0  0  0  0  0  0
   25.4710  -11.1900   -4.1110 C   0  0  0  0  0  0  0  0  0  0  0  0
   28.4010   -9.7830   -4.5710 C   0  0  0  0  0  0  0  0  0  0  0  0
   29.2560   -8.7090   -4.6310 O   0  0  0  0  0  0  0  0  0  0  0  0
   28.9400   -7.6930   -5.4960 C   0  0  0  0  0  0  0  0  0  0  0  0
   29.8060   -6.5980   -5.5370 C   0  0  0  0  0  0  0  0  0  0  0  0
   31.0350   -6.5580   -4.6520 C   0  0  2  0  0  0  0  0  0  0  0  0
   31.1490   -5.2320   -4.1250 O   0  0  0  0  0  0  0  0  0  0  0  0
   32.2250   -5.0950   -3.1980 C   0  0  2  0  0  0  0  0  0  0  0  0
   32.1640   -3.6800   -2.6310 C   0  0  0  0  0  0  0  0  0  0  0  0
   32.6110   -3.7130   -1.2870 O   0  0  0  0  0  0  0  0  0  0  0  0
   33.5580   -5.3670   -3.8970 C   0  0  1  0  0  0  0  0  0  0  0  0
   34.6130   -5.3030   -2.9420 O   0  0  0  0  0  0  0  0  0  0  0  0
   33.5550   -6.7480   -4.5530 C   0  0  2  0  0  0  0  0  0  0  0  0
   34.7220   -6.8520   -5.3690 O   0  0  0  0  0  0  0  0  0  0  0  0
   32.3080   -6.9510   -5.4180 C   0  0  1  0  0  0  0  0  0  0  0  0
   32.2150   -8.3280   -5.7830 O   0  0  0  0  0  0  0  0  0  0  0  0
   29.5370   -5.5350   -6.3980 C   0  0  0  0  0  0  0  0  0  0  0  0
   30.3670   -4.4570   -6.4540 O   0  0  0  0  0  0  0  0  0  0  0  0
   28.4070   -5.5650   -7.2170 C   0  0  0  0  0  0  0  0  0  0  0  0
   27.5410   -6.6590   -7.1770 C   0  0  0  0  0  0  0  0  0  0  0  0
   27.8120   -7.7230   -6.3130 C   0  0  0  0  0  0  0  0  0  0  0  0
   27.4173  -12.2648   -6.7011 H   0  0  0  0  0  0  0  0  0  0  0  0
   26.0126  -14.3007   -6.3833 H   0  0  0  0  0  0  0  0  0  0  0  0
   23.7590  -14.5570   -3.6700 H   0  0  0  0  0  0  0  0  0  0  0  0
   23.9125  -12.3475   -3.1511 H   0  0  0  0  0  0  0  0  0  0  0  0
   25.3167  -10.3110   -3.4679 H   0  0  0  0  0  0  0  0  0  0  0  0
   28.6608  -10.5793   -3.8580 H   0  0  0  0  0  0  0  0  0  0  0  0
   30.9249   -7.2909   -3.8392 H   0  0  0  0  0  0  0  0  0  0  0  0
   32.1387   -5.8237   -2.3785 H   0  0  0  0  0  0  0  0  0  0  0  0
   32.8125   -3.0158   -3.2212 H   0  0  0  0  0  0  0  0  0  0  0  0
   31.1322   -3.3012   -2.6751 H   0  0  0  0  0  0  0  0  0  0  0  0
   32.3890   -4.5870   -0.9250 H   0  0  0  0  0  0  0  0  0  0  0  0
   33.7065   -4.6063   -4.6776 H   0  0  0  0  0  0  0  0  0  0  0  0
   35.3480   -4.8040   -3.3390 H   0  0  0  0  0  0  0  0  0  0  0  0
   33.5496   -7.5205   -3.7699 H   0  0  0  0  0  0  0  0  0  0  0  0
   34.5620   -7.5620   -6.0140 H   0  0  0  0  0  0  0  0  0  0  0  0
   32.3954   -6.3141   -6.3106 H   0  0  0  0  0  0  0  0  0  0  0  0
   32.5660   -8.8570   -5.0470 H   0  0  0  0  0  0  0  0  0  0  0  0
   30.3580   -4.0010   -5.5960 H   0  0  0  0  0  0  0  0  0  0  0  0
   28.1985   -4.7246   -7.8954 H   0  0  0  0  0  0  0  0  0  0  0  0
   26.6503   -6.6833   -7.8220 H   0  0  0  0  0  0  0  0  0  0  0  0
  1  2  2  0
  2  3  1  0
  3  4  1  0
  4  5  2  0
  5  6  1  0
  6  7  2  0
  7  8  1  0
  7  9  1  0
  9 10  2  0
  3 11  2  0
 11 12  1  0
 12 13  1  0
 13 14  2  0
 14 15  1  0
 15 16  1  0
 16 17  1  0
 17 18  1  0
 18 19  1  0
 17 20  1  0
 20 21  1  0
 20 22  1  0
 22 23  1  0
 22 24  1  0
 24 25  1  0
 14 26  1  0
 26 27  1  0
 26 28  2  0
 28 29  1  0
 29 30  2  0
 30  2  1  0
 10  4  1  0
 30 13  1  0
 24 15  1  0
  5 31  1  0
  6 32  1  0
  8 33  1  0
  9 34  1  0
 10 35  1  0
 11 36  1  0
 15 37  1  1
 17 38  1  1
 18 39  1  0
 18 40  1  0
 19 41  1  0
 20 42  1  6
 21 43  1  0
 22 44  1  1
 23 45  1  0
 24 46  1  6
 25 47  1  0
 27 48  1  0
 28 49  1  0
 29 50  1  0
M  END
>  <meeko>  (18) 
{"is_sidechain": [false], "free_energy": -6.165, "intermolecular_energy": -7.943, "internal_energy": -1.141}

$$$$
puerarin_run03
     RDKit          3D

 50 53  0  0  0  0  0  0  0  0999 V2000
   26.0580   -8.2950   -6.5120 O   0  0  0  0  0  0  0  0  0  0  0  0
   26.9940   -9.0060   -6.8540 C   0  0  0  0  0  0  0  0  0  0  0  0
   27.4090  -10.2060   -6.0780 C   0  0  0  0  0  0  0  0  0  0  0  0
   26.7510  -10.5850   -4.8170 C   0  0  0  0  0  0  0  0  0  0  0  0
   25.6020  -11.3790   -4.8370 C   0  0  0  0  0  0  0  0  0  0  0  0
   24.9790  -11.7380   -3.6420 C   0  0  0  0  0  0  0  0  0  0  0  0
   25.5030  -11.3050   -2.4240 C   0  0  0  0  0  0  0  0  0  0  0  0
   24.8930  -11.6550   -1.2580 O   0  0  0  0  0  0  0  0  0  0  0  0
   26.6500  -10.5120   -2.4010 C   0  0  0  0  0  0  0  0  0  0  0  0
   27.2740  -10.1530   -3.5960 C   0  0  0  0  0  0  0  0  0  0  0  0
   28.4310  -10.9290   -6.5630 C   0  0  0  0  0  0  0  0  0  0  0  0
   29.1420  -10.6820   -7.7120 O   0  0  0  0  0  0  0  0  0  0  0  0
   28.8020   -9.5740   -8.4450 C   0  0  0  0  0  0  0  0  0  0  0  0
   29.5420   -9.3230   -9.6020 C   0  0  0  0  0  0  0  0  0  0  0  0
   30.6700  -10.2500  -10.0080 C   0  0  2  0  0  0  0  0  0  0  0  0
   30.1020  -11.3140  -10.7800 O   0  0  0  0  0  0  0  0  0  0  0  0
   31.0860  -12.2070  -11.2990 C   0  0  2  0  0  0  0  0  0  0  0  0
   30.3650  -13.2170  -12.1870 C   0  0  0  0  0  0  0  0  0  0  0  0
   29.0010  -12.8450  -12.2760 O   0  0  0  0  0  0  0  0  0  0  0  0
   31.8300  -12.8930  -10.1520 C   0  0  1  0  0  0  0  0  0  0  0  0
   32.8590  -13.7210  -10.6850 O   0  0  0  0  0  0  0  0  0  0  0  0
   32.4520  -11.8580   -9.2130 C   0  0  2  0  0  0  0  0  0  0  0  0
   32.9330  -12.5440   -8.0570 O   0  0  0  0  0  0  0  0  0  0  0  0
   31.4260  -10.8030   -8.7900 C   0  0  1  0  0  0  0  0  0  0  0  0
   32.1060   -9.7250   -8.1470 O   0  0  0  0  0  0  0  0  0  0  0  0
   29.2410   -8.2110  -10.3880 C   0  0  0  0  0  0  0  0  0  0  0  0
   29.9500   -7.9460  -11.5200 O   0  0  0  0  0  0  0  0  0  0  0  0
   28.2030   -7.3530  -10.0210 C   0  0  0  0  0  0  0  0  0  0  0  0
   27.4620   -7.6040   -8.8650 C   0  0  0  0  0  0  0  0  0  0  0  0
   27.7660   -8.7180   -8.0780 C   0  0  0  0  0  0  0  0  0  0  0  0
   25.1879  -11.7217   -5.7967 H   0  0  0  0  0  0  0  0  0  0  0  0
   24.0739  -12.3629   -3.6600 H   0  0  0  0  0  0  0  0  0  0  0  0
   25.5520  -12.0570   -0.6670 H   0  0  0  0  0  0  0  0  0  0  0  0
   27.0627  -10.1696   -1.4406 H   0  0  0  0  0  0  0  0  0  0  0  0
   28.1794   -9.5287   -3.5766 H   0  0  0  0  0  0  0  0  0  0  0  0
   28.7304  -11.8118   -5.9790 H   0  0  0  0  0  0  0  0  0  0  0  0
   31.4085   -9.6910  -10.6015 H   0  0  0  0  0  0  0  0  0  0  0  0
   31.8393  -11.6672  -11.8916 H   0  0  0  0  0  0  0  0  0  0  0  0
   30.8157  -13.2170  -13.1904 H   0  0  0  0  0  0  0  0  0  0  0  0
   30.4530  -14.2261  -11.7580 H   0  0  0  0  0  0  0  0  0  0  0  0
   28.9680  -11.9040  -12.5190 H   0  0  0  0  0  0  0  0  0  0  0  0
   31.1118  -13.5006   -9.5819 H   0  0  0  0  0  0  0  0  0  0  0  0
   32.4680  -14.2780  -11.3800 H   0  0  0  0  0  0  0  0  0  0  0  0
   33.2702  -11.3403   -9.7351 H   0  0  0  0  0  0  0  0  0  0  0  0
   33.9000  -12.4400   -8.0400 H   0  0  0  0  0  0  0  0  0  0  0  0
   30.7034  -11.2735   -8.1070 H   0  0  0  0  0  0  0  0  0  0  0  0
   32.2110   -9.9550   -7.2090 H   0  0  0  0  0  0  0  0  0  0  0  0
   29.9810   -6.9850  -11.6600 H   0  0  0  0  0  0  0  0  0  0  0  0
   27.9685   -6.4773  -10.6440 H   0  0  0  0  0  0  0  0  0  0  0  0
   26.6434   -6.9288   -8.5752 H   0  0  0  0  0  0  0  0  0  0  0  0
  1  2  2  0
  2  3  1  0
  3  4  1  0
  4  5  2  0
  5  6  1  0
  6  7  2  0
  7  8  1  0
  7  9  1  0
  9 10  2  0
  3 11  2  0
 11 12  1  0
 12 13  1  0
 13 14  2  0
 14 15  1  0
 15 16  1  0
 16 17  1  0
 17 18  1  0
 18 19  1  0
 17 20  1  0
 20 21  1  0
 20 22  1  0
 22 23  1  0
 22 24  1  0
 24 25  1  0
 14 26  1  0
 26 27  1  0
 26 28  2  0
 28 29  1  0
 29 30  2  0
 30  2  1  0
 10  4  1  0
 30 13  1  0
 24 15  1  0
  5 31  1  0
  6 32  1  0
  8 33  1  0
  9 34  1  0
 10 35  1  0
 11 36  1  0
 15 37  1  6
 17 38  1  6
 18 39  1  0
 18 40  1  0
 19 41  1  0
 20 42  1  1
 21 43  1  0
 22 44  1  6
 23 45  1  0
 24 46  1  1
 25 47  1  0
 27 48  1  0
 28 49  1  0
 29 50  1  0
M  END
>  <meeko>  (19) 
{"is_sidechain": [false], "free_energy": -6.077, "intermolecular_energy": -8.816, "internal_energy": -0.15}

$$$$
