puerarin_run01
     RDKit          3D

 50 53  0  0  0  0  0  0  0  0999 V2000
   29.5450  -10.2030  -11.3930 O   0  0  0  0  0  0  0  0  0  0  0  0
   29.3810  -10.4930  -10.2150 C   0  0  0  0  0  0  0  0  0  0  0  0
   30.4980  -10.9490   -9.3440 C   0  0  0  0  0  0  0  0  0  0  0  0
   31.8650  -11.1310   -9.8590 C   0  0  0  0  0  0  0  0  0  0  0  0
   32.2820  -12.3840  -10.3140 C   0  0  0  0  0  0  0  0  0  0  0  0
   33.5770  -12.5560  -10.8020 C   0  0  0  0  0  0  0  0  0  0  0  0
   34.4590  -11.4750  -10.8380 C   0  0  0  0  0  0  0  0  0  0  0  0
   35.7220  -11.6430  -11.3140 O   0  0  0  0  0  0  0  0  0  0  0  0
   34.0440  -10.2230  -10.3840 C   0  0  0  0  0  0  0  0  0  0  0  0
   32.7490  -10.0500   -9.8950 C   0  0  0  0  0  0  0  0  0  0  0  0
   30.2080  -11.2100   -8.0600 C   0  0  0  0  0  0  0  0  0  0  0  0
   28.9810  -11.0990   -7.4530 O   0  0  0  0  0  0  0  0  0  0  0  0
   27.9230  -10.7000   -8.2280 C   0  0  0  0  0  0  0  0  0  0  0  0
   26.6760  -10.6070   -7.6060 C   0  0  0  0  0  0  0  0  0  0  0  0
   26.5250  -10.9400   -6.1350 C   0  0  2  0  0  0  0  0  0  0  0  0
   25.8370  -12.1920   -6.0410 O   0  0  0  0  0  0  0  0  0  0  0  0
   25.7160  -12.6580   -4.6970 C   0  0  2  0  0  0  0  0  0  0  0  0
   25.0720  -14.0400   -4.7480 C   0  0  0  0  0  0  0  0  0  0  0  0
   23.7100  -13.9160   -4.3780 O   0  0  0  0  0  0  0  0  0  0  0  0
   24.8820  -11.6740   -3.8740 C   0  0  1  0  0  0  0  0  0  0  0  0
   24.8370  -12.1140   -2.5200 O   0  0  0  0  0  0  0  0  0  0  0  0
   25.4870  -10.2710   -3.9290 C   0  0  2  0  0  0  0  0  0  0  0  0
   24.5540   -9.3660   -3.3380 O   0  0  0  0  0  0  0  0  0  0  0  0
   25.7680   -9.8430   -5.3720 C   0  0  1  0  0  0  0  0  0  0  0  0
   26.5700   -8.6610   -5.3570 O   0  0  0  0  0  0  0  0  0  0  0  0
   25.5630  -10.2060   -8.3430 C   0  0  0  0  0  0  0  0  0  0  0  0
   24.3370  -10.1090   -7.7570 O   0  0  0  0  0  0  0  0  0  0  0  0
   25.6930   -9.8970   -9.6980 C   0  0  0  0  0  0  0  0  0  0  0  0
   26.9390   -9.9880  -10.3210 C   0  0  0  0  0  0  0  0  0  0  0  0
   28.0540  -10.3920   -9.5800 C   0  0  0  0  0  0  0  0  0  0  0  0
   31.5876  -13.2367  -10.2874 H   0  0  0  0  0  0  0  0  0  0  0  0
   33.9034  -13.5440  -11.1587 H   0  0  0  0  0  0  0  0  0  0  0  0
   36.3290  -11.0800  -10.8020 H   0  0  0  0  0  0  0  0  0  0  0  0
   34.7390   -9.3708  -10.4116 H   0  0  0  0  0  0  0  0  0  0  0  0
   32.4238   -9.0618   -9.5376 H   0  0  0  0  0  0  0  0  0  0  0  0
   31.0412  -11.5487   -7.4267 H   0  0  0  0  0  0  0  0  0  0  0  0
   27.5198  -11.0077   -5.6705 H   0  0  0  0  0  0  0  0  0  0  0  0
   26.6997  -12.7289   -4.2099 H   0  0  0  0  0  0  0  0  0  0  0  0
   25.1438  -14.4453   -5.7681 H   0  0  0  0  0  0  0  0  0  0  0  0
   25.5892  -14.7222   -4.0573 H   0  0  0  0  0  0  0  0  0  0  0  0
   23.6230  -13.1060   -3.8470 H   0  0  0  0  0  0  0  0  0  0  0  0
   23.8664  -11.6356   -4.2948 H   0  0  0  0  0  0  0  0  0  0  0  0
   24.3350  -11.4570   -2.0070 H   0  0  0  0  0  0  0  0  0  0  0  0
   26.4430  -10.2662   -3.3850 H   0  0  0  0  0  0  0  0  0  0  0  0
   23.9730   -9.8870   -2.7580 H   0  0  0  0  0  0  0  0  0  0  0  0
   24.8072   -9.6594   -5.8752 H   0  0  0  0  0  0  0  0  0  0  0  0
   27.4620   -8.9090   -5.0620 H   0  0  0  0  0  0  0  0  0  0  0  0
   24.4490  -10.0280   -6.7950 H   0  0  0  0  0  0  0  0  0  0  0  0
   24.8120   -9.5812  -10.2760 H   0  0  0  0  0  0  0  0  0  0  0  0
   27.0431   -9.7434  -11.3884 H   0  0  0  0  0  0  0  0  0  0  0  0
  1  2  2  0
  2  3  1  0
  3  4  1  0
  4  5  2  0
  5  6  1  0
  6  7  2  0
  7  8  1  0
  7  9  1  0
  9 10  2  0
  3 11  2  0
 11 12  1  0
 12 13  1  0
 13 14  2  0
 14 15  1  0
 15 16  1  0
 16 17  1  0
 17 18  1  0
 18 19  1  0
 17 20  1  0
 20 21  1  0
 20 22  1  0
 22 23  1  0
 22 24  1  0
 24 25  1  0
 14 26  1  0
 26 27  1  0
 26 28  2  0
 28 29  1  0
 29 30  2  0
 30  2  1  0
 10  4  1  0
 30 13  1  0
 24 15  1  0
  5 31  1  0
  6 32  1  0
  8 33  1  0
  9 34  1  0
 10 35  1  0
 11 36  1  0
 15 37  1  1
 17 38  1  1
 18 39  1  0
 18 40  1  0
 19 41  1  0
 20 42  1  6
 21 43  1  0
 22 44  1  1
 23 45  1  0
 24 46  1  6
 25 47  1  0
 27 48  1  0
 28 49  1  0
 29 50  1  0
M  END
>  <meeko>  (1) 
{"is_sidechain": [false], "free_energy": -7.292, "intermolecular_energy": -9.85, "internal_energy": -0.755}

$$$$
puerarin_run01
     RDKit          3D

 50 53  0  0  0  0  0  0  0  0999 V2000
   30.8840   -8.6680   -9.2010 O   0  0  0  0  0  0  0  0  0  0  0  0
   30.2070   -9.3650   -8.4560 C   0  0  0  0  0  0  0  0  0  0  0  0
   30.3580  -10.8450   -8.3920 C   0  0  0  0  0  0  0  0  0  0  0  0
   31.2980  -11.5700   -9.2610 C   0  0  0  0  0  0  0  0  0  0  0  0
   32.6720  -11.5020   -9.0200 C   0  0  0  0  0  0  0  0  0  0  0  0
   33.5630  -12.1900   -9.8430 C   0  0  0  0  0  0  0  0  0  0  0  0
   33.0820  -12.9490  -10.9110 C   0  0  0  0  0  0  0  0  0  0  0  0
   33.9510  -13.6190  -11.7150 O   0  0  0  0  0  0  0  0  0  0  0  0
   31.7110  -13.0190  -11.1550 C   0  0  0  0  0  0  0  0  0  0  0  0
   30.8200  -12.3300  -10.3310 C   0  0  0  0  0  0  0  0  0  0  0  0
   29.5830  -11.5040   -7.5180 C   0  0  0  0  0  0  0  0  0  0  0  0
   28.6570  -10.9580   -6.6620 O   0  0  0  0  0  0  0  0  0  0  0  0
   28.4760   -9.6000   -6.7050 C   0  0  0  0  0  0  0  0  0  0  0  0
   27.5200   -9.0570   -5.8440 C   0  0  0  0  0  0  0  0  0  0  0  0
   26.7290   -9.9530   -4.9120 C   0  0  2  0  0  0  0  0  0  0  0  0
   25.4290   -9.3740   -4.7510 O   0  0  0  0  0  0  0  0  0  0  0  0
   24.5570  -10.1830   -3.9620 C   0  0  2  0  0  0  0  0  0  0  0  0
   23.1850   -9.5150   -3.9650 C   0  0  0  0  0  0  0  0  0  0  0  0
   23.3640   -8.1210   -4.1460 O   0  0  0  0  0  0  0  0  0  0  0  0
   25.1140  -10.3250   -2.5440 C   0  0  1  0  0  0  0  0  0  0  0  0
   24.2740  -11.1970   -1.7930 O   0  0  0  0  0  0  0  0  0  0  0  0
   26.5330  -10.8940   -2.5730 C   0  0  2  0  0  0  0  0  0  0  0  0
   27.0760  -10.7930   -1.2560 O   0  0  0  0  0  0  0  0  0  0  0  0
   27.4220  -10.1210   -3.5510 C   0  0  1  0  0  0  0  0  0  0  0  0
   28.6380  -10.8450   -3.7450 O   0  0  0  0  0  0  0  0  0  0  0  0
   27.2910   -7.6810   -5.8420 C   0  0  0  0  0  0  0  0  0  0  0  0
   26.3640   -7.1300   -5.0110 O   0  0  0  0  0  0  0  0  0  0  0  0
   28.0160   -6.8500   -6.6970 C   0  0  0  0  0  0  0  0  0  0  0  0
   28.9720   -7.3910   -7.5580 C   0  0  0  0  0  0  0  0  0  0  0  0
   29.1990   -8.7700   -7.5590 C   0  0  0  0  0  0  0  0  0  0  0  0
   33.0524  -10.9041   -8.1787 H   0  0  0  0  0  0  0  0  0  0  0  0
   34.6446  -12.1345   -9.6506 H   0  0  0  0  0  0  0  0  0  0  0  0
   33.4850  -13.8940  -12.5230 H   0  0  0  0  0  0  0  0  0  0  0  0
   31.3318  -13.6171  -11.9967 H   0  0  0  0  0  0  0  0  0  0  0  0
   29.7386  -12.3856  -10.5246 H   0  0  0  0  0  0  0  0  0  0  0  0
   29.7011  -12.5971   -7.4827 H   0  0  0  0  0  0  0  0  0  0  0  0
   26.6549  -10.9603   -5.3477 H   0  0  0  0  0  0  0  0  0  0  0  0
   24.4725  -11.1985   -4.3764 H   0  0  0  0  0  0  0  0  0  0  0  0
   22.5766   -9.9207   -4.7867 H   0  0  0  0  0  0  0  0  0  0  0  0
   22.6696   -9.7083   -3.0126 H   0  0  0  0  0  0  0  0  0  0  0  0
   22.4900   -7.7010   -4.0730 H   0  0  0  0  0  0  0  0  0  0  0  0
   25.1426   -9.3297   -2.0765 H   0  0  0  0  0  0  0  0  0  0  0  0
   24.1040  -11.9890   -2.3320 H   0  0  0  0  0  0  0  0  0  0  0  0
   26.4967  -11.9414   -2.9072 H   0  0  0  0  0  0  0  0  0  0  0  0
   26.3270  -10.7250   -0.6390 H   0  0  0  0  0  0  0  0  0  0  0  0
   27.6211   -9.1251   -3.1285 H   0  0  0  0  0  0  0  0  0  0  0  0
   29.3000  -10.2290   -4.1010 H   0  0  0  0  0  0  0  0  0  0  0  0
   26.1860   -6.2170   -5.2920 H   0  0  0  0  0  0  0  0  0  0  0  0
   27.8335   -5.7653   -6.6924 H   0  0  0  0  0  0  0  0  0  0  0  0
   29.5435   -6.7358   -8.2319 H   0  0  0  0  0  0  0  0  0  0  0  0
  1  2  2  0
  2  3  1  0
  3  4  1  0
  4  5  2  0
  5  6  1  0
  6  7  2  0
  7  8  1  0
  7  9  1  0
  9 10  2  0
  3 11  2  0
 11 12  1  0
 12 13  1  0
 13 14  2  0
 14 15  1  0
 15 16  1  0
 16 17  1  0
 17 18  1  0
 18 19  1  0
 17 20  1  0
 20 21  1  0
 20 22  1  0
 22 23  1  0
 22 24  1  0
 24 25  1  0
 14 26  1  0
 26 27  1  0
 26 28  2  0
 28 29  1  0
 29 30  2  0
 30  2  1  0
 10  4  1  0
 30 13  1  0
 24 15  1  0
  5 31  1  0
  6 32  1  0
  8 33  1  0
  9 34  1  0
 10 35  1  0
 11 36  1  0
 15 37  1  6
 17 38  1  6
 18 39  1  0
 18 40  1  0
 19 41  1  0
 20 42  1  1
 21 43  1  0
 22 44  1  6
 23 45  1  0
 24 46  1  1
 25 47  1  0
 27 48  1  0
 28 49  1  0
 29 50  1  0
M  END
>  <meeko>  (2) 
{"is_sidechain": [false], "free_energy": -7.266, "intermolecular_energy": -9.68, "internal_energy": -0.889}

$$$$
puerarin_run01
     RDKit          3D

 50 53  0  0  0  0  0  0  0  0999 V2000
   29.4880   -9.2730  -11.2620 O   0  0  0  0  0  0  0  0  0  0  0  0
   29.3410   -9.5550  -10.0800 C   0  0  0  0  0  0  0  0  0  0  0  0
   30.4650   -9.5160   -9.1050 C   0  0  0  0  0  0  0  0  0  0  0  0
   31.8400   -9.1880   -9.5130 C   0  0  0  0  0  0  0  0  0  0  0  0
   32.3100   -7.8770   -9.4050 C   0  0  0  0  0  0  0  0  0  0  0  0
   33.6140   -7.5660   -9.7920 C   0  0  0  0  0  0  0  0  0  0  0  0
   34.4510   -8.5660  -10.2890 C   0  0  0  0  0  0  0  0  0  0  0  0
   35.7220   -8.2620  -10.6670 O   0  0  0  0  0  0  0  0  0  0  0  0
   33.9840   -9.8760  -10.3980 C   0  0  0  0  0  0  0  0  0  0  0  0
   32.6810  -10.1870  -10.0110 C   0  0  0  0  0  0  0  0  0  0  0  0
   30.1810   -9.8150   -7.8280 C   0  0  0  0  0  0  0  0  0  0  0  0
   28.9520  -10.1520   -7.3140 O   0  0  0  0  0  0  0  0  0  0  0  0
   27.8950  -10.2170   -8.1850 C   0  0  0  0  0  0  0  0  0  0  0  0
   26.6550  -10.5780   -7.6560 C   0  0  0  0  0  0  0  0  0  0  0  0
   26.5090  -10.8820   -6.1780 C   0  0  2  0  0  0  0  0  0  0  0  0
   25.8740  -12.1590   -6.0580 O   0  0  0  0  0  0  0  0  0  0  0  0
   25.7650  -12.5980   -4.7040 C   0  0  2  0  0  0  0  0  0  0  0  0
   25.1820  -14.0070   -4.7240 C   0  0  0  0  0  0  0  0  0  0  0  0
   23.7830  -13.9180   -4.5250 O   0  0  0  0  0  0  0  0  0  0  0  0
   24.8850  -11.6320   -3.9090 C   0  0  1  0  0  0  0  0  0  0  0  0
   24.8500  -12.0400   -2.5440 O   0  0  0  0  0  0  0  0  0  0  0  0
   25.4290  -10.2050   -3.9950 C   0  0  2  0  0  0  0  0  0  0  0  0
   24.4550   -9.3270   -3.4300 O   0  0  0  0  0  0  0  0  0  0  0  0
   25.7010   -9.8000   -5.4460 C   0  0  1  0  0  0  0  0  0  0  0  0
   26.4500   -8.5850   -5.4550 O   0  0  0  0  0  0  0  0  0  0  0  0
   25.5420  -10.6600   -8.4930 C   0  0  0  0  0  0  0  0  0  0  0  0
   24.3230  -11.0100   -7.9980 O   0  0  0  0  0  0  0  0  0  0  0  0
   25.6680  -10.3800   -9.8540 C   0  0  0  0  0  0  0  0  0  0  0  0
   26.9070  -10.0190  -10.3840 C   0  0  0  0  0  0  0  0  0  0  0  0
   28.0210   -9.9380   -9.5440 C   0  0  0  0  0  0  0  0  0  0  0  0
   31.6507   -7.0881   -9.0140 H   0  0  0  0  0  0  0  0  0  0  0  0
   33.9821   -6.5330   -9.7054 H   0  0  0  0  0  0  0  0  0  0  0  0
   36.1460   -9.0640  -11.0190 H   0  0  0  0  0  0  0  0  0  0  0  0
   34.6441  -10.6641  -10.7895 H   0  0  0  0  0  0  0  0  0  0  0  0
   32.3144  -11.2205  -10.0978 H   0  0  0  0  0  0  0  0  0  0  0  0
   31.0206   -9.7874   -7.1178 H   0  0  0  0  0  0  0  0  0  0  0  0
   27.5027  -10.8964   -5.7064 H   0  0  0  0  0  0  0  0  0  0  0  0
   26.7482  -12.6149   -4.2111 H   0  0  0  0  0  0  0  0  0  0  0  0
   25.3891  -14.4804   -5.6951 H   0  0  0  0  0  0  0  0  0  0  0  0
   25.6377  -14.6144   -3.9281 H   0  0  0  0  0  0  0  0  0  0  0  0
   23.5750  -12.9940   -4.3060 H   0  0  0  0  0  0  0  0  0  0  0  0
   23.8714  -11.6489   -4.3360 H   0  0  0  0  0  0  0  0  0  0  0  0
   25.2710  -11.3440   -2.0110 H   0  0  0  0  0  0  0  0  0  0  0  0
   26.3806  -10.1459   -3.4463 H   0  0  0  0  0  0  0  0  0  0  0  0
   24.7360   -9.1300   -2.5200 H   0  0  0  0  0  0  0  0  0  0  0  0
   24.7369   -9.6700   -5.9595 H   0  0  0  0  0  0  0  0  0  0  0  0
   26.4120   -8.2170   -6.3540 H   0  0  0  0  0  0  0  0  0  0  0  0
   24.4450  -11.5640   -7.2090 H   0  0  0  0  0  0  0  0  0  0  0  0
   24.7880  -10.4441  -10.5109 H   0  0  0  0  0  0  0  0  0  0  0  0
   27.0066   -9.7993  -11.4572 H   0  0  0  0  0  0  0  0  0  0  0  0
  1  2  2  0
  2  3  1  0
  3  4  1  0
  4  5  2  0
  5  6  1  0
  6  7  2  0
  7  8  1  0
  7  9  1  0
  9 10  2  0
  3 11  2  0
 11 12  1  0
 12 13  1  0
 13 14  2  0
 14 15  1  0
 15 16  1  0
 16 17  1  0
 17 18  1  0
 18 19  1  0
 17 20  1  0
 20 21  1  0
 20 22  1  0
 22 23  1  0
 22 24  1  0
 24 25  1  0
 14 26  1  0
 26 27  1  0
 26 28  2  0
 28 29  1  0
 29 30  2  0
 30  2  1  0
 10  4  1  0
 30 13  1  0
 24 15  1  0
  5 31  1  0
  6 32  1  0
  8 33  1  0
  9 34  1  0
 10 35  1  0
 11 36  1  0
 15 37  1  1
 17 38  1  1
 18 39  1  0
 18 40  1  0
 19 41  1  0
 20 42  1  6
 21 43  1  0
 22 44  1  1
 23 45  1  0
 24 46  1  6
 25 47  1  0
 27 48  1  0
 28 49  1  0
 29 50  1  0
M  END
>  <meeko>  (3) 
{"is_sidechain": [false], "free_energy": -7.208, "intermolecular_energy": -9.357, "internal_energy": -1.134}

$$$$
puerarin_run01
     RDKit          3D

 50 53  0  0  0  0  0  0  0  0999 V2000
   29.6450   -7.8600   -9.9670 O   0  0  0  0  0  0  0  0  0  0  0  0
   29.0900   -8.6310   -9.1940 C   0  0  0  0  0  0  0  0  0  0  0  0
   29.2580  -10.1080   -9.2830 C   0  0  0  0  0  0  0  0  0  0  0  0
   30.0600  -10.7390  -10.3430 C   0  0  0  0  0  0  0  0  0  0  0  0
   29.4480  -11.1870  -11.5150 C   0  0  0  0  0  0  0  0  0  0  0  0
   30.2090  -11.7840  -12.5190 C   0  0  0  0  0  0  0  0  0  0  0  0
   31.5860  -11.9360  -12.3540 C   0  0  0  0  0  0  0  0  0  0  0  0
   32.3290  -12.5200  -13.3340 O   0  0  0  0  0  0  0  0  0  0  0  0
   32.2010  -11.4890  -11.1850 C   0  0  0  0  0  0  0  0  0  0  0  0
   31.4390  -10.8910  -10.1800 C   0  0  0  0  0  0  0  0  0  0  0  0
   28.6260  -10.8540   -8.3640 C   0  0  0  0  0  0  0  0  0  0  0  0
   27.8370  -10.4000   -7.3350 O   0  0  0  0  0  0  0  0  0  0  0  0
   27.6430   -9.0470   -7.2310 C   0  0  0  0  0  0  0  0  0  0  0  0
   26.8250   -8.5970   -6.1940 C   0  0  0  0  0  0  0  0  0  0  0  0
   26.1880   -9.5840   -5.2360 C   0  0  2  0  0  0  0  0  0  0  0  0
   24.8950   -9.0780   -4.8860 O   0  0  0  0  0  0  0  0  0  0  0  0
   24.1570   -9.9730   -4.0550 C   0  0  2  0  0  0  0  0  0  0  0  0
   22.7690   -9.3710   -3.8530 C   0  0  0  0  0  0  0  0  0  0  0  0
   22.8410   -7.9800   -4.1050 O   0  0  0  0  0  0  0  0  0  0  0  0
   24.8850  -10.1750   -2.7250 C   0  0  1  0  0  0  0  0  0  0  0  0
   24.1760  -11.1290   -1.9390 O   0  0  0  0  0  0  0  0  0  0  0  0
   26.3120  -10.6740   -2.9580 C   0  0  2  0  0  0  0  0  0  0  0  0
   27.0040  -10.6280   -1.7090 O   0  0  0  0  0  0  0  0  0  0  0  0
   27.0460   -9.8020   -3.9800 C   0  0  1  0  0  0  0  0  0  0  0  0
   28.2570  -10.4550   -4.3620 O   0  0  0  0  0  0  0  0  0  0  0  0
   26.5920   -7.2320   -6.0370 C   0  0  0  0  0  0  0  0  0  0  0  0
   25.7970   -6.7710   -5.0320 O   0  0  0  0  0  0  0  0  0  0  0  0
   27.1760   -6.3160   -6.9140 C   0  0  0  0  0  0  0  0  0  0  0  0
   27.9950   -6.7640   -7.9520 C   0  0  0  0  0  0  0  0  0  0  0  0
   28.2260   -8.1340   -8.1080 C   0  0  0  0  0  0  0  0  0  0  0  0
   28.3623  -11.0686  -11.6467 H   0  0  0  0  0  0  0  0  0  0  0  0
   29.7236  -12.1353  -13.4415 H   0  0  0  0  0  0  0  0  0  0  0  0
   32.3660  -13.4780  -13.1710 H   0  0  0  0  0  0  0  0  0  0  0  0
   33.2868  -11.6077  -11.0549 H   0  0  0  0  0  0  0  0  0  0  0  0
   31.9251  -10.5389   -9.2582 H   0  0  0  0  0  0  0  0  0  0  0  0
   28.7530  -11.9438   -8.4428 H   0  0  0  0  0  0  0  0  0  0  0  0
   26.1020  -10.5655   -5.7250 H   0  0  0  0  0  0  0  0  0  0  0  0
   24.0637  -10.9643   -4.5225 H   0  0  0  0  0  0  0  0  0  0  0  0
   22.0572   -9.8378   -4.5497 H   0  0  0  0  0  0  0  0  0  0  0  0
   22.4272   -9.5499   -2.8229 H   0  0  0  0  0  0  0  0  0  0  0  0
   23.0440   -7.8620   -5.0490 H   0  0  0  0  0  0  0  0  0  0  0  0
   24.9303   -9.2097   -2.1994 H   0  0  0  0  0  0  0  0  0  0  0  0
   24.7550  -11.4080   -1.2090 H   0  0  0  0  0  0  0  0  0  0  0  0
   26.2779  -11.6994   -3.3547 H   0  0  0  0  0  0  0  0  0  0  0  0
   27.7870  -11.2000   -1.7920 H   0  0  0  0  0  0  0  0  0  0  0  0
   27.2554   -8.8252   -3.5194 H   0  0  0  0  0  0  0  0  0  0  0  0
   28.6400   -9.9630   -5.1080 H   0  0  0  0  0  0  0  0  0  0  0  0
   25.0730   -7.4020   -4.8820 H   0  0  0  0  0  0  0  0  0  0  0  0
   26.9904   -5.2392   -6.7868 H   0  0  0  0  0  0  0  0  0  0  0  0
   28.4560   -6.0431   -8.6433 H   0  0  0  0  0  0  0  0  0  0  0  0
  1  2  2  0
  2  3  1  0
  3  4  1  0
  4  5  2  0
  5  6  1  0
  6  7  2  0
  7  8  1  0
  7  9  1  0
  9 10  2  0
  3 11  2  0
 11 12  1  0
 12 13  1  0
 13 14  2  0
 14 15  1  0
 15 16  1  0
 16 17  1  0
 17 18  1  0
 18 19  1  0
 17 20  1  0
 20 21  1  0
 20 22  1  0
 22 23  1  0
 22 24  1  0
 24 25  1  0
 14 26  1  0
 26 27  1  0
 26 28  2  0
 28 29  1  0
 29 30  2  0
 30  2  1  0
 10  4  1  0
 30 13  1  0
 24 15  1  0
  5 31  1  0
  6 32  1  0
  8 33  1  0
  9 34  1  0
 10 35  1  0
 11 36  1  0
 15 37  1  6
 17 38  1  6
 18 39  1  0
 18 40  1  0
 19 41  1  0
 20 42  1  1
 21 43  1  0
 22 44  1  6
 23 45  1  0
 24 46  1  1
 25 47  1  0
 27 48  1  0
 28 49  1  0
 29 50  1  0
M  END
>  <meeko>  (4) 
{"is_sidechain": [false], "free_energy": -7.095, "intermolecular_energy": -9.357, "internal_energy": -0.982}

$$$$
puerarin_run01
     RDKit          3D

 50 53  0  0  0  0  0  0  0  0999 V2000
   27.9770   -9.1000  -11.4080 O   0  0  0  0  0  0  0  0  0  0  0  0
   27.4620   -9.3470  -10.3250 C   0  0  0  0  0  0  0  0  0  0  0  0
   26.0550   -8.9760  -10.0080 C   0  0  0  0  0  0  0  0  0  0  0  0
   25.2090   -8.2390  -10.9600 C   0  0  0  0  0  0  0  0  0  0  0  0
   24.6000   -8.9100  -12.0220 C   0  0  0  0  0  0  0  0  0  0  0  0
   23.7980   -8.2110  -12.9240 C   0  0  0  0  0  0  0  0  0  0  0  0
   23.6040   -6.8390  -12.7670 C   0  0  0  0  0  0  0  0  0  0  0  0
   22.8230   -6.1570  -13.6480 O   0  0  0  0  0  0  0  0  0  0  0  0
   24.2120   -6.1660  -11.7070 C   0  0  0  0  0  0  0  0  0  0  0  0
   25.0140   -6.8650  -10.8050 C   0  0  0  0  0  0  0  0  0  0  0  0
   25.5860   -9.3250   -8.8000 C   0  0  0  0  0  0  0  0  0  0  0  0
   26.2660   -9.9970   -7.8130 O   0  0  0  0  0  0  0  0  0  0  0  0
   27.5710  -10.3390   -8.0610 C   0  0  0  0  0  0  0  0  0  0  0  0
   28.2590  -11.0060   -7.0460 C   0  0  0  0  0  0  0  0  0  0  0  0
   27.5710  -11.3250   -5.7340 C   0  0  2  0  0  0  0  0  0  0  0  0
   26.6640  -12.4080   -5.9710 O   0  0  0  0  0  0  0  0  0  0  0  0
   26.0200  -12.8610   -4.7800 C   0  0  2  0  0  0  0  0  0  0  0  0
   25.1780  -14.0780   -5.1500 C   0  0  0  0  0  0  0  0  0  0  0  0
   25.2390  -15.0090   -4.0850 O   0  0  0  0  0  0  0  0  0  0  0  0
   25.1650  -11.7400   -4.1870 C   0  0  1  0  0  0  0  0  0  0  0  0
   24.5930  -12.1830   -2.9600 O   0  0  0  0  0  0  0  0  0  0  0  0
   26.0100  -10.4920   -3.9280 C   0  0  2  0  0  0  0  0  0  0  0  0
   25.1260   -9.4230   -3.5910 O   0  0  0  0  0  0  0  0  0  0  0  0
   26.8280  -10.1080   -5.1630 C   0  0  1  0  0  0  0  0  0  0  0  0
   27.7900   -9.1190   -4.7930 O   0  0  0  0  0  0  0  0  0  0  0  0
   29.5880  -11.3800   -7.2400 C   0  0  0  0  0  0  0  0  0  0  0  0
   30.2780  -12.0310   -6.2640 O   0  0  0  0  0  0  0  0  0  0  0  0
   30.2280  -11.0900   -8.4460 C   0  0  0  0  0  0  0  0  0  0  0  0
   29.5410  -10.4240   -9.4620 C   0  0  0  0  0  0  0  0  0  0  0  0
   28.2090  -10.0490   -9.2650 C   0  0  0  0  0  0  0  0  0  0  0  0
   24.7529   -9.9920  -12.1477 H   0  0  0  0  0  0  0  0  0  0  0  0
   23.3184   -8.7421  -13.7594 H   0  0  0  0  0  0  0  0  0  0  0  0
   23.3040   -5.3670  -13.9490 H   0  0  0  0  0  0  0  0  0  0  0  0
   24.0589   -5.0838  -11.5825 H   0  0  0  0  0  0  0  0  0  0  0  0
   25.4937   -6.3330   -9.9702 H   0  0  0  0  0  0  0  0  0  0  0  0
   24.5466   -9.0431   -8.5761 H   0  0  0  0  0  0  0  0  0  0  0  0
   28.3250  -11.6057   -4.9839 H   0  0  0  0  0  0  0  0  0  0  0  0
   26.7556  -13.1423   -4.0120 H   0  0  0  0  0  0  0  0  0  0  0  0
   24.1347  -13.7708   -5.3146 H   0  0  0  0  0  0  0  0  0  0  0  0
   25.5639  -14.5360   -6.0727 H   0  0  0  0  0  0  0  0  0  0  0  0
   25.9710  -15.6220   -4.2720 H   0  0  0  0  0  0  0  0  0  0  0  0
   24.3718  -11.4855   -4.9054 H   0  0  0  0  0  0  0  0  0  0  0  0
   23.9120  -11.5410   -2.6960 H   0  0  0  0  0  0  0  0  0  0  0  0
   26.7153  -10.6953   -3.1087 H   0  0  0  0  0  0  0  0  0  0  0  0
   24.4200   -9.4100   -4.2600 H   0  0  0  0  0  0  0  0  0  0  0  0
   26.1406   -9.7206   -5.9295 H   0  0  0  0  0  0  0  0  0  0  0  0
   28.3930   -8.9930   -5.5450 H   0  0  0  0  0  0  0  0  0  0  0  0
   30.5430  -11.3930   -5.5800 H   0  0  0  0  0  0  0  0  0  0  0  0
   31.2764  -11.3871   -8.5960 H   0  0  0  0  0  0  0  0  0  0  0  0
   30.0450  -10.1954  -10.4126 H   0  0  0  0  0  0  0  0  0  0  0  0
  1  2  2  0
  2  3  1  0
  3  4  1  0
  4  5  2  0
  5  6  1  0
  6  7  2  0
  7  8  1  0
  7  9  1  0
  9 10  2  0
  3 11  2  0
 11 12  1  0
 12 13  1  0
 13 14  2  0
 14 15  1  0
 15 16  1  0
 16 17  1  0
 17 18  1  0
 18 19  1  0
 17 20  1  0
 20 21  1  0
 20 22  1  0
 22 23  1  0
 22 24  1  0
 24 25  1  0
 14 26  1  0
 26 27  1  0
 26 28  2  0
 28 29  1  0
 29 30  2  0
 30  2  1  0
 10  4  1  0
 30 13  1  0
 24 15  1  0
  5 31  1  0
  6 32  1  0
  8 33  1  0
  9 34  1  0
 10 35  1  0
 11 36  1  0
 15 37  1  1
 17 38  1  1
 18 39  1  0
 18 40  1  0
 19 41  1  0
 20 42  1  6
 21 43  1  0
 22 44  1  1
 23 45  1  0
 24 46  1  6
 25 47  1  0
 27 48  1  0
 28 49  1  0
 29 50  1  0
M  END
>  <meeko>  (5) 
{"is_sidechain": [false], "free_energy": -7.028, "intermolecular_energy": -9.847, "internal_energy": -0.401}

$$$$
puerarin_run01
     RDKit          3D

 50 53  0  0  0  0  0  0  0  0999 V2000
   28.4290   -9.1830  -11.6870 O   0  0  0  0  0  0  0  0  0  0  0  0
   27.6670   -9.2380  -10.7300 C   0  0  0  0  0  0  0  0  0  0  0  0
   26.2850   -8.6870  -10.7780 C   0  0  0  0  0  0  0  0  0  0  0  0
   25.7640   -7.9920  -11.9650 C   0  0  0  0  0  0  0  0  0  0  0  0
   24.7730   -8.5870  -12.7480 C   0  0  0  0  0  0  0  0  0  0  0  0
   24.2790   -7.9280  -13.8740 C   0  0  0  0  0  0  0  0  0  0  0  0
   24.7750   -6.6700  -14.2200 C   0  0  0  0  0  0  0  0  0  0  0  0
   24.2940   -6.0280  -15.3180 O   0  0  0  0  0  0  0  0  0  0  0  0
   25.7650   -6.0740  -13.4390 C   0  0  0  0  0  0  0  0  0  0  0  0
   26.2590   -6.7330  -12.3140 C   0  0  0  0  0  0  0  0  0  0  0  0
   25.5280   -8.8310   -9.6790 C   0  0  0  0  0  0  0  0  0  0  0  0
   25.8900   -9.4400   -8.5020 O   0  0  0  0  0  0  0  0  0  0  0  0
   27.1620   -9.9440   -8.4130 C   0  0  0  0  0  0  0  0  0  0  0  0
   27.5270  -10.5460   -7.2070 C   0  0  0  0  0  0  0  0  0  0  0  0
   26.5390  -10.6250   -6.0600 C   0  0  2  0  0  0  0  0  0  0  0  0
   27.2810  -10.5170   -4.8400 O   0  0  0  0  0  0  0  0  0  0  0  0
   26.4440  -10.4870   -3.6840 C   0  0  2  0  0  0  0  0  0  0  0  0
   27.3430  -10.2570   -2.4730 C   0  0  0  0  0  0  0  0  0  0  0  0
   28.5990   -9.7880   -2.9280 O   0  0  0  0  0  0  0  0  0  0  0  0
   25.6620  -11.7980   -3.5680 C   0  0  1  0  0  0  0  0  0  0  0  0
   24.7750  -11.7200   -2.4560 O   0  0  0  0  0  0  0  0  0  0  0  0
   24.8550  -12.0620   -4.8400 C   0  0  2  0  0  0  0  0  0  0  0  0
   24.3330  -13.3890   -4.7620 O   0  0  0  0  0  0  0  0  0  0  0  0
   25.7270  -11.9290   -6.0910 C   0  0  1  0  0  0  0  0  0  0  0  0
   24.8850  -11.9150   -7.2440 O   0  0  0  0  0  0  0  0  0  0  0  0
   28.8070  -11.0760   -7.0570 C   0  0  0  0  0  0  0  0  0  0  0  0
   29.1840  -11.6680   -5.8890 O   0  0  0  0  0  0  0  0  0  0  0  0
   29.7220  -11.0080   -8.1090 C   0  0  0  0  0  0  0  0  0  0  0  0
   29.3590  -10.4070   -9.3150 C   0  0  0  0  0  0  0  0  0  0  0  0
   28.0750   -9.8750   -9.4630 C   0  0  0  0  0  0  0  0  0  0  0  0
   24.3807   -9.5781  -12.4763 H   0  0  0  0  0  0  0  0  0  0  0  0
   23.4986   -8.3998  -14.4892 H   0  0  0  0  0  0  0  0  0  0  0  0
   24.8750   -5.2750  -15.5220 H   0  0  0  0  0  0  0  0  0  0  0  0
   26.1566   -5.0827  -13.7110 H   0  0  0  0  0  0  0  0  0  0  0  0
   27.0400   -6.2607  -11.7000 H   0  0  0  0  0  0  0  0  0  0  0  0
   24.5097   -8.4175   -9.7257 H   0  0  0  0  0  0  0  0  0  0  0  0
   25.8102   -9.8055   -6.1454 H   0  0  0  0  0  0  0  0  0  0  0  0
   25.7028   -9.6769   -3.7506 H   0  0  0  0  0  0  0  0  0  0  0  0
   26.8861   -9.5088   -1.8086 H   0  0  0  0  0  0  0  0  0  0  0  0
   27.4712  -11.1964   -1.9152 H   0  0  0  0  0  0  0  0  0  0  0  0
   29.2430  -10.5060   -2.8060 H   0  0  0  0  0  0  0  0  0  0  0  0
   26.3761  -12.6226   -3.4263 H   0  0  0  0  0  0  0  0  0  0  0  0
   23.8680  -11.6490   -2.7990 H   0  0  0  0  0  0  0  0  0  0  0  0
   24.0455  -11.3212   -4.9164 H   0  0  0  0  0  0  0  0  0  0  0  0
   23.6460  -13.4710   -5.4460 H   0  0  0  0  0  0  0  0  0  0  0  0
   26.4230  -12.7802   -6.1240 H   0  0  0  0  0  0  0  0  0  0  0  0
   25.1540  -11.1650   -7.8010 H   0  0  0  0  0  0  0  0  0  0  0  0
   30.1460  -11.8100   -5.8990 H   0  0  0  0  0  0  0  0  0  0  0  0
   30.7310  -11.4289   -7.9872 H   0  0  0  0  0  0  0  0  0  0  0  0
   30.0793  -10.3523  -10.1445 H   0  0  0  0  0  0  0  0  0  0  0  0
  1  2  2  0
  2  3  1  0
  3  4  1  0
  4  5  2  0
  5  6  1  0
  6  7  2  0
  7  8  1  0
  7  9  1  0
  9 10  2  0
  3 11  2  0
 11 12  1  0
 12 13  1  0
 13 14  2  0
 14 15  1  0
 15 16  1  0
 16 17  1  0
 17 18  1  0
 18 19  1  0
 17 20  1  0
 20 21  1  0
 20 22  1  0
 22 23  1  0
 22 24  1  0
 24 25  1  0
 14 26  1  0
 26 27  1  0
 26 28  2  0
 28 29  1  0
 29 30  2  0
 30  2  1  0
 10  4  1  0
 30 13  1  0
 24 15  1  0
  5 31  1  0
  6 32  1  0
  8 33  1  0
  9 34  1  0
 10 35  1  0
 11 36  1  0
 15 37  1  6
 17 38  1  6
 18 39  1  0
 18 40  1  0
 19 41  1  0
 20 42  1  1
 21 43  1  0
 22 44  1  6
 23 45  1  0
 24 46  1  6
 25 47  1  0
 27 48  1  0
 28 49  1  0
 29 50  1  0
M  END
>  <meeko>  (6) 
{"is_sidechain": [false], "free_energy": -7.005, "intermolecular_energy": -9.401, "internal_energy": -0.815}

$$$$
puerarin_run01
     RDKit          3D

 50 53  0  0  0  0  0  0  0  0999 V2000
   28.4640  -11.6440   -6.6850 O   0  0  0  0  0  0  0  0  0  0  0  0
   27.7430  -10.8090   -7.2160 C   0  0  0  0  0  0  0  0  0  0  0  0
   26.5900  -10.1860   -6.5100 C   0  0  0  0  0  0  0  0  0  0  0  0
   26.2100  -10.5760   -5.1430 C   0  0  0  0  0  0  0  0  0  0  0  0
   26.9250  -10.0850   -4.0490 C   0  0  0  0  0  0  0  0  0  0  0  0
   26.5650  -10.4550   -2.7530 C   0  0  0  0  0  0  0  0  0  0  0  0
   25.4870  -11.3180   -2.5480 C   0  0  0  0  0  0  0  0  0  0  0  0
   25.1370  -11.6790   -1.2840 O   0  0  0  0  0  0  0  0  0  0  0  0
   24.7710  -11.8090   -3.6390 C   0  0  0  0  0  0  0  0  0  0  0  0
   25.1320  -11.4390   -4.9350 C   0  0  0  0  0  0  0  0  0  0  0  0
   25.8870   -9.2590   -7.1790 C   0  0  0  0  0  0  0  0  0  0  0  0
   26.1200   -8.8130   -8.4580 O   0  0  0  0  0  0  0  0  0  0  0  0
   27.1620   -9.3760   -9.1480 C   0  0  0  0  0  0  0  0  0  0  0  0
   27.3790   -8.9290  -10.4520 C   0  0  0  0  0  0  0  0  0  0  0  0
   26.4850   -7.8650  -11.0570 C   0  0  2  0  0  0  0  0  0  0  0  0
   26.6520   -6.6680  -10.2890 O   0  0  0  0  0  0  0  0  0  0  0  0
   25.9250   -5.5620  -10.8230 C   0  0  2  0  0  0  0  0  0  0  0  0
   26.2760   -4.3360   -9.9850 C   0  0  0  0  0  0  0  0  0  0  0  0
   25.2310   -4.1090   -9.0580 O   0  0  0  0  0  0  0  0  0  0  0  0
   24.4240   -5.8570  -10.7910 C   0  0  1  0  0  0  0  0  0  0  0  0
   23.7190   -4.7780  -11.3980 O   0  0  0  0  0  0  0  0  0  0  0  0
   24.1090   -7.1510  -11.5440 C   0  0  2  0  0  0  0  0  0  0  0  0
   22.7440   -7.4870  -11.2910 O   0  0  0  0  0  0  0  0  0  0  0  0
   25.0110   -8.2980  -11.0800 C   0  0  1  0  0  0  0  0  0  0  0  0
   24.8710   -9.3940  -11.9850 O   0  0  0  0  0  0  0  0  0  0  0  0
   28.4250   -9.4650  -11.2030 C   0  0  0  0  0  0  0  0  0  0  0  0
   28.6550   -9.0430  -12.4780 O   0  0  0  0  0  0  0  0  0  0  0  0
   29.2530  -10.4440  -10.6520 C   0  0  0  0  0  0  0  0  0  0  0  0
   29.0370  -10.8920   -9.3480 C   0  0  0  0  0  0  0  0  0  0  0  0
   27.9880  -10.3540   -8.5970 C   0  0  0  0  0  0  0  0  0  0  0  0
   27.7744   -9.4047   -4.2094 H   0  0  0  0  0  0  0  0  0  0  0  0
   27.1304  -10.0669   -1.8929 H   0  0  0  0  0  0  0  0  0  0  0  0
   25.0190  -12.6440   -1.2530 H   0  0  0  0  0  0  0  0  0  0  0  0
   23.9211  -12.4884   -3.4779 H   0  0  0  0  0  0  0  0  0  0  0  0
   24.5664  -11.8279   -5.7946 H   0  0  0  0  0  0  0  0  0  0  0  0
   25.0351   -8.8090   -6.6481 H   0  0  0  0  0  0  0  0  0  0  0  0
   26.7730   -7.6966  -12.1052 H   0  0  0  0  0  0  0  0  0  0  0  0
   26.1939   -5.3791  -11.8738 H   0  0  0  0  0  0  0  0  0  0  0  0
   27.2181   -4.5131   -9.4455 H   0  0  0  0  0  0  0  0  0  0  0  0
   26.3983   -3.4579  -10.6362 H   0  0  0  0  0  0  0  0  0  0  0  0
   25.4550   -3.3100   -8.5520 H   0  0  0  0  0  0  0  0  0  0  0  0
   24.1112   -5.9735   -9.7429 H   0  0  0  0  0  0  0  0  0  0  0  0
   24.3680   -4.1040  -11.6610 H   0  0  0  0  0  0  0  0  0  0  0  0
   24.2866   -6.9979  -12.6187 H   0  0  0  0  0  0  0  0  0  0  0  0
   22.4210   -6.8840  -10.6000 H   0  0  0  0  0  0  0  0  0  0  0  0
   24.7105   -8.5889  -10.0626 H   0  0  0  0  0  0  0  0  0  0  0  0
   25.0740  -10.2100  -11.4980 H   0  0  0  0  0  0  0  0  0  0  0  0
   28.7860   -9.8170  -13.0510 H   0  0  0  0  0  0  0  0  0  0  0  0
   30.0777  -10.8635  -11.2468 H   0  0  0  0  0  0  0  0  0  0  0  0
   29.6888  -11.6643   -8.9136 H   0  0  0  0  0  0  0  0  0  0  0  0
  1  2  2  0
  2  3  1  0
  3  4  1  0
  4  5  2  0
  5  6  1  0
  6  7  2  0
  7  8  1  0
  7  9  1  0
  9 10  2  0
  3 11  2  0
 11 12  1  0
 12 13  1  0
 13 14  2  0
 14 15  1  0
 15 16  1  0
 16 17  1  0
 17 18  1  0
 18 19  1  0
 17 20  1  0
 20 21  1  0
 20 22  1  0
 22 23  1  0
 22 24  1  0
 24 25  1  0
 14 26  1  0
 26 27  1  0
 26 28  2  0
 28 29  1  0
 29 30  2  0
 30  2  1  0
 10  4  1  0
 30 13  1  0
 24 15  1  0
  5 31  1  0
  6 32  1  0
  8 33  1  0
  9 34  1  0
 10 35  1  0
 11 36  1  0
 15 37  1  6
 17 38  1  6
 18 39  1  0
 18 40  1  0
 19 41  1  0
 20 42  1  1
 21 43  1  0
 22 44  1  6
 23 45  1  0
 24 46  1  1
 25 47  1  0
 27 48  1  0
 28 49  1  0
 29 50  1  0
M  END
>  <meeko>  (7) 
{"is_sidechain": [false], "free_energy": -6.848, "intermolecular_energy": -9.456, "internal_energy": -0.548}

$$$$
puerarin_run01
     RDKit          3D

 50 53  0  0  0  0  0  0  0  0999 V2000
   28.3980   -6.5300   -9.4190 O   0  0  0  0  0  0  0  0  0  0  0  0
   27.9650   -7.0090   -8.3790 C   0  0  0  0  0  0  0  0  0  0  0  0
   28.2390   -6.4020   -7.0470 C   0  0  0  0  0  0  0  0  0  0  0  0
   29.0950   -5.2150   -6.8930 C   0  0  0  0  0  0  0  0  0  0  0  0
   28.5220   -3.9530   -6.7280 C   0  0  0  0  0  0  0  0  0  0  0  0
   29.3340   -2.8280   -6.5810 C   0  0  0  0  0  0  0  0  0  0  0  0
   30.7220   -2.9630   -6.5990 C   0  0  0  0  0  0  0  0  0  0  0  0
   31.5140   -1.8660   -6.4570 O   0  0  0  0  0  0  0  0  0  0  0  0
   31.2980   -4.2230   -6.7640 C   0  0  0  0  0  0  0  0  0  0  0  0
   30.4860   -5.3470   -6.9110 C   0  0  0  0  0  0  0  0  0  0  0  0
   27.6870   -6.9940   -5.9770 C   0  0  0  0  0  0  0  0  0  0  0  0
   26.8850   -8.1090   -5.9740 O   0  0  0  0  0  0  0  0  0  0  0  0
   26.6250   -8.7080   -7.1800 C   0  0  0  0  0  0  0  0  0  0  0  0
   25.8230   -9.8500   -7.1650 C   0  0  0  0  0  0  0  0  0  0  0  0
   25.2760  -10.3870   -5.8570 C   0  0  2  0  0  0  0  0  0  0  0  0
   24.2700   -9.4760   -5.4000 O   0  0  0  0  0  0  0  0  0  0  0  0
   23.6140   -9.9260   -4.2150 C   0  0  2  0  0  0  0  0  0  0  0  0
   22.5000   -8.9310   -3.9030 C   0  0  0  0  0  0  0  0  0  0  0  0
   22.9650   -7.6270   -4.2000 O   0  0  0  0  0  0  0  0  0  0  0  0
   24.6190  -10.0290   -3.0660 C   0  0  1  0  0  0  0  0  0  0  0  0
   23.9640  -10.5530   -1.9140 O   0  0  0  0  0  0  0  0  0  0  0  0
   25.7830  -10.9450   -3.4440 C   0  0  2  0  0  0  0  0  0  0  0  0
   26.7850  -10.8250   -2.4340 O   0  0  0  0  0  0  0  0  0  0  0  0
   26.3780  -10.5580   -4.8010 C   0  0  1  0  0  0  0  0  0  0  0  0
   27.2660  -11.5910   -5.2300 O   0  0  0  0  0  0  0  0  0  0  0  0
   25.5240  -10.5020   -8.3610 C   0  0  0  0  0  0  0  0  0  0  0  0
   24.7440  -11.6190   -8.3700 O   0  0  0  0  0  0  0  0  0  0  0  0
   26.0220  -10.0140   -9.5690 C   0  0  0  0  0  0  0  0  0  0  0  0
   26.8240   -8.8710   -9.5860 C   0  0  0  0  0  0  0  0  0  0  0  0
   27.1230   -8.2200   -8.3860 C   0  0  0  0  0  0  0  0  0  0  0  0
   27.4274   -3.8451   -6.7138 H   0  0  0  0  0  0  0  0  0  0  0  0
   28.8795   -1.8347   -6.4509 H   0  0  0  0  0  0  0  0  0  0  0  0
   32.4450   -2.1380   -6.5270 H   0  0  0  0  0  0  0  0  0  0  0  0
   32.3927   -4.3297   -6.7781 H   0  0  0  0  0  0  0  0  0  0  0  0
   30.9414   -6.3398   -7.0414 H   0  0  0  0  0  0  0  0  0  0  0  0
   27.8992   -6.5382   -4.9986 H   0  0  0  0  0  0  0  0  0  0  0  0
   24.8484  -11.3872   -6.0208 H   0  0  0  0  0  0  0  0  0  0  0  0
   23.1835  -10.9286   -4.3545 H   0  0  0  0  0  0  0  0  0  0  0  0
   21.6165   -9.1587   -4.5175 H   0  0  0  0  0  0  0  0  0  0  0  0
   22.2213   -8.9986   -2.8410 H   0  0  0  0  0  0  0  0  0  0  0  0
   22.2710   -7.1770   -4.7120 H   0  0  0  0  0  0  0  0  0  0  0  0
   25.0153   -9.0250   -2.8541 H   0  0  0  0  0  0  0  0  0  0  0  0
   24.5670  -11.1850   -1.4860 H   0  0  0  0  0  0  0  0  0  0  0  0
   25.4192  -11.9803   -3.5198 H   0  0  0  0  0  0  0  0  0  0  0  0
   26.7910   -9.8970   -2.1410 H   0  0  0  0  0  0  0  0  0  0  0  0
   26.9127   -9.6033   -4.6885 H   0  0  0  0  0  0  0  0  0  0  0  0
   27.7300  -11.9300   -4.4470 H   0  0  0  0  0  0  0  0  0  0  0  0
   24.1920  -11.6170   -9.1700 H   0  0  0  0  0  0  0  0  0  0  0  0
   25.7825  -10.5306  -10.5102 H   0  0  0  0  0  0  0  0  0  0  0  0
   27.2180   -8.4854  -10.5379 H   0  0  0  0  0  0  0  0  0  0  0  0
  1  2  2  0
  2  3  1  0
  3  4  1  0
  4  5  2  0
  5  6  1  0
  6  7  2  0
  7  8  1  0
  7  9  1  0
  9 10  2  0
  3 11  2  0
 11 12  1  0
 12 13  1  0
 13 14  2  0
 14 15  1  0
 15 16  1  0
 16 17  1  0
 17 18  1  0
 18 19  1  0
 17 20  1  0
 20 21  1  0
 20 22  1  0
 22 23  1  0
 22 24  1  0
 24 25  1  0
 14 26  1  0
 26 27  1  0
 26 28  2  0
 28 29  1  0
 29 30  2  0
 30  2  1  0
 10  4  1  0
 30 13  1  0
 24 15  1  0
  5 31  1  0
  6 32  1  0
  8 33  1  0
  9 34  1  0
 10 35  1  0
 11 36  1  0
 15 37  1  6
 17 38  1  6
 18 39  1  0
 18 40  1  0
 19 41  1  0
 20 42  1  1
 21 43  1  0
 22 44  1  6
 23 45  1  0
 24 46  1  1
 25 47  1  0
 27 48  1  0
 28 49  1  0
 29 50  1  0
M  END
>  <meeko>  (8) 
{"is_sidechain": [false], "free_energy": -6.787, "intermolecular_energy": -9.61, "internal_energy": -0.313}

$$$$
puerarin_run01
     RDKit          3D

 50 53  0  0  0  0  0  0  0  0999 V2000
   29.3780   -5.5060   -8.4880 O   0  0  0  0  0  0  0  0  0  0  0  0
   28.5020   -6.3350   -8.2750 C   0  0  0  0  0  0  0  0  0  0  0  0
   27.3470   -6.5300   -9.1950 C   0  0  0  0  0  0  0  0  0  0  0  0
   27.1570   -5.6980  -10.3940 C   0  0  0  0  0  0  0  0  0  0  0  0
   27.6530   -6.1230  -11.6280 C   0  0  0  0  0  0  0  0  0  0  0  0
   27.4730   -5.3350  -12.7650 C   0  0  0  0  0  0  0  0  0  0  0  0
   26.7950   -4.1190  -12.6700 C   0  0  0  0  0  0  0  0  0  0  0  0
   26.6200   -3.3500  -13.7790 O   0  0  0  0  0  0  0  0  0  0  0  0
   26.2980   -3.6920  -11.4380 C   0  0  0  0  0  0  0  0  0  0  0  0
   26.4790   -4.4800  -10.3020 C   0  0  0  0  0  0  0  0  0  0  0  0
   26.4640   -7.4880   -8.8770 C   0  0  0  0  0  0  0  0  0  0  0  0
   26.5090   -8.3230   -7.7860 O   0  0  0  0  0  0  0  0  0  0  0  0
   27.5480   -8.1620   -6.9060 C   0  0  0  0  0  0  0  0  0  0  0  0
   27.5760   -9.0020   -5.7920 C   0  0  0  0  0  0  0  0  0  0  0  0
   26.4910  -10.0400   -5.5860 C   0  0  2  0  0  0  0  0  0  0  0  0
   26.1060  -10.0000   -4.2080 O   0  0  0  0  0  0  0  0  0  0  0  0
   25.0190  -10.8760   -3.9110 C   0  0  2  0  0  0  0  0  0  0  0  0
   24.6370  -10.6530   -2.4510 C   0  0  0  0  0  0  0  0  0  0  0  0
   25.0470  -11.7820   -1.7010 O   0  0  0  0  0  0  0  0  0  0  0  0
   25.4270  -12.3270   -4.1740 C   0  0  1  0  0  0  0  0  0  0  0  0
   24.3090  -13.1800   -3.9480 O   0  0  0  0  0  0  0  0  0  0  0  0
   25.9120  -12.5010   -5.6140 C   0  0  2  0  0  0  0  0  0  0  0  0
   26.4830  -13.8050   -5.7320 O   0  0  0  0  0  0  0  0  0  0  0  0
   26.9620  -11.4490   -5.9790 C   0  0  1  0  0  0  0  0  0  0  0  0
   27.1790  -11.4800   -7.3900 O   0  0  0  0  0  0  0  0  0  0  0  0
   28.6080   -8.8850   -4.8620 C   0  0  0  0  0  0  0  0  0  0  0  0
   28.6550   -9.6950   -3.7670 O   0  0  0  0  0  0  0  0  0  0  0  0
   29.6110   -7.9330   -5.0440 C   0  0  0  0  0  0  0  0  0  0  0  0
   29.5850   -7.0920   -6.1580 C   0  0  0  0  0  0  0  0  0  0  0  0
   28.5490   -7.2100   -7.0890 C   0  0  0  0  0  0  0  0  0  0  0  0
   28.1871   -7.0816  -11.7039 H   0  0  0  0  0  0  0  0  0  0  0  0
   27.8653   -5.6720  -13.7359 H   0  0  0  0  0  0  0  0  0  0  0  0
   25.8120   -3.6380  -14.2370 H   0  0  0  0  0  0  0  0  0  0  0  0
   25.7633   -2.7336  -11.3630 H   0  0  0  0  0  0  0  0  0  0  0  0
   26.0871   -4.1419   -9.3314 H   0  0  0  0  0  0  0  0  0  0  0  0
   25.6134   -7.6195   -9.5620 H   0  0  0  0  0  0  0  0  0  0  0  0
   25.6341   -9.8079   -6.2355 H   0  0  0  0  0  0  0  0  0  0  0  0
   24.1518  -10.6660   -4.5543 H   0  0  0  0  0  0  0  0  0  0  0  0
   25.1396   -9.7519   -2.0696 H   0  0  0  0  0  0  0  0  0  0  0  0
   23.5490  -10.5173   -2.3629 H   0  0  0  0  0  0  0  0  0  0  0  0
   25.8730  -11.5480   -1.2450 H   0  0  0  0  0  0  0  0  0  0  0  0
   26.2481  -12.5904   -3.4910 H   0  0  0  0  0  0  0  0  0  0  0  0
   24.1580  -13.6980   -4.7560 H   0  0  0  0  0  0  0  0  0  0  0  0
   25.0615  -12.3773   -6.3005 H   0  0  0  0  0  0  0  0  0  0  0  0
   26.1720  -14.1820   -6.5720 H   0  0  0  0  0  0  0  0  0  0  0  0
   27.8896  -11.6783   -5.4340 H   0  0  0  0  0  0  0  0  0  0  0  0
   26.3640  -11.1780   -7.8250 H   0  0  0  0  0  0  0  0  0  0  0  0
   28.7050   -9.1460   -2.9660 H   0  0  0  0  0  0  0  0  0  0  0  0
   30.4241   -7.8447   -4.3084 H   0  0  0  0  0  0  0  0  0  0  0  0
   30.3754   -6.3407   -6.3023 H   0  0  0  0  0  0  0  0  0  0  0  0
  1  2  2  0
  2  3  1  0
  3  4  1  0
  4  5  2  0
  5  6  1  0
  6  7  2  0
  7  8  1  0
  7  9  1  0
  9 10  2  0
  3 11  2  0
 11 12  1  0
 12 13  1  0
 13 14  2  0
 14 15  1  0
 15 16  1  0
 16 17  1  0
 17 18  1  0
 18 19  1  0
 17 20  1  0
 20 21  1  0
 20 22  1  0
 22 23  1  0
 22 24  1  0
 24 25  1  0
 14 26  1  0
 26 27  1  0
 26 28  2  0
 28 29  1  0
 29 30  2  0
 30  2  1  0
 10  4  1  0
 30 13  1  0
 24 15  1  0
  5 31  1  0
  6 32  1  0
  8 33  1  0
  9 34  1  0
 10 35  1  0
 11 36  1  0
 15 37  1  6
 17 38  1  6
 18 39  1  0
 18 40  1  0
 19 41  1  0
 20 42  1  1
 21 43  1  0
 22 44  1  6
 23 45  1  0
 24 46  1  1
 25 47  1  0
 27 48  1  0
 28 49  1  0
 29 50  1  0
M  END
>  <meeko>  (9) 
{"is_sidechain": [false], "free_energy": -6.617, "intermolecular_energy": -8.546, "internal_energy": -1.147}

$$$$
puerarin_run01
     RDKit          3D

 50 53  0  0  0  0  0  0  0  0999 V2000
   28.5390  -11.2270   -6.7070 O   0  0  0  0  0  0  0  0  0  0  0  0
   27.6090  -10.6880   -7.2930 C   0  0  0  0  0  0  0  0  0  0  0  0
   26.3190  -10.3720   -6.6210 C   0  0  0  0  0  0  0  0  0  0  0  0
   26.0600  -10.7370   -5.2200 C   0  0  0  0  0  0  0  0  0  0  0  0
   25.1850  -11.7830   -4.9170 C   0  0  0  0  0  0  0  0  0  0  0  0
   24.9400  -12.1290   -3.5890 C   0  0  0  0  0  0  0  0  0  0  0  0
   25.5700  -11.4310   -2.5580 C   0  0  0  0  0  0  0  0  0  0  0  0
   25.3300  -11.7690   -1.2620 O   0  0  0  0  0  0  0  0  0  0  0  0
   26.4450  -10.3870   -2.8570 C   0  0  0  0  0  0  0  0  0  0  0  0
   26.6900  -10.0400   -4.1860 C   0  0  0  0  0  0  0  0  0  0  0  0
   25.3810   -9.7510   -7.3530 C   0  0  0  0  0  0  0  0  0  0  0  0
   25.4820   -9.3680   -8.6690 O   0  0  0  0  0  0  0  0  0  0  0  0
   26.6490   -9.6590   -9.3280 C   0  0  0  0  0  0  0  0  0  0  0  0
   26.7350   -9.2810  -10.6690 C   0  0  0  0  0  0  0  0  0  0  0  0
   25.5730   -8.5810  -11.3450 C   0  0  2  0  0  0  0  0  0  0  0  0
   25.5140   -9.0450  -12.6980 O   0  0  0  0  0  0  0  0  0  0  0  0
   24.3960   -8.5220  -13.4150 C   0  0  2  0  0  0  0  0  0  0  0  0
   24.3870   -9.1780  -14.7920 C   0  0  0  0  0  0  0  0  0  0  0  0
   25.7210   -9.4910  -15.1510 O   0  0  0  0  0  0  0  0  0  0  0  0
   24.5030   -6.9990  -13.5140 C   0  0  1  0  0  0  0  0  0  0  0  0
   23.3430   -6.4860  -14.1620 O   0  0  0  0  0  0  0  0  0  0  0  0
   24.6230   -6.3720  -12.1240 C   0  0  2  0  0  0  0  0  0  0  0  0
   24.9410   -4.9890  -12.2900 O   0  0  0  0  0  0  0  0  0  0  0  0
   25.7180   -7.0520  -11.2990 C   0  0  1  0  0  0  0  0  0  0  0  0
   25.6090   -6.6240   -9.9410 O   0  0  0  0  0  0  0  0  0  0  0  0
   27.8970   -9.5490  -11.3910 C   0  0  0  0  0  0  0  0  0  0  0  0
   28.0030   -9.1900  -12.7000 O   0  0  0  0  0  0  0  0  0  0  0  0
   28.9720  -10.1920  -10.7750 C   0  0  0  0  0  0  0  0  0  0  0  0
   28.8870  -10.5700   -9.4340 C   0  0  0  0  0  0  0  0  0  0  0  0
   27.7210  -10.3010   -8.7120 C   0  0  0  0  0  0  0  0  0  0  0  0
   24.6881  -12.3350   -5.7284 H   0  0  0  0  0  0  0  0  0  0  0  0
   24.2498  -12.9526   -3.3538 H   0  0  0  0  0  0  0  0  0  0  0  0
   25.2610  -12.7370   -1.1960 H   0  0  0  0  0  0  0  0  0  0  0  0
   26.9423   -9.8368   -2.0446 H   0  0  0  0  0  0  0  0  0  0  0  0
   27.3804   -9.2162   -4.4201 H   0  0  0  0  0  0  0  0  0  0  0  0
   24.4313   -9.5247   -6.8462 H   0  0  0  0  0  0  0  0  0  0  0  0
   24.6409   -8.8188  -10.8115 H   0  0  0  0  0  0  0  0  0  0  0  0
   23.4516   -8.7438  -12.8965 H   0  0  0  0  0  0  0  0  0  0  0  0
   23.7858  -10.0986  -14.7602 H   0  0  0  0  0  0  0  0  0  0  0  0
   23.9490   -8.4925  -15.5325 H   0  0  0  0  0  0  0  0  0  0  0  0
   26.2880   -9.2710  -14.3930 H   0  0  0  0  0  0  0  0  0  0  0  0
   25.4035   -6.7472  -14.0934 H   0  0  0  0  0  0  0  0  0  0  0  0
   23.5020   -5.5490  -14.3680 H   0  0  0  0  0  0  0  0  0  0  0  0
   23.6717   -6.4979  -11.5863 H   0  0  0  0  0  0  0  0  0  0  0  0
   24.9910   -4.5950  -11.4030 H   0  0  0  0  0  0  0  0  0  0  0  0
   26.6956   -6.7751  -11.7204 H   0  0  0  0  0  0  0  0  0  0  0  0
   24.8700   -5.9950   -9.8840 H   0  0  0  0  0  0  0  0  0  0  0  0
   27.1880   -8.7360  -12.9730 H   0  0  0  0  0  0  0  0  0  0  0  0
   29.8878  -10.4012  -11.3474 H   0  0  0  0  0  0  0  0  0  0  0  0
   29.7335  -11.0771   -8.9479 H   0  0  0  0  0  0  0  0  0  0  0  0
  1  2  2  0
  2  3  1  0
  3  4  1  0
  4  5  2  0
  5  6  1  0
  6  7  2  0
  7  8  1  0
  7  9  1  0
  9 10  2  0
  3 11  2  0
 11 12  1  0
 12 13  1  0
 13 14  2  0
 14 15  1  0
 15 16  1  0
 16 17  1  0
 17 18  1  0
 18 19  1  0
 17 20  1  0
 20 21  1  0
 20 22  1  0
 22 23  1  0
 22 24  1  0
 24 25  1  0
 14 26  1  0
 26 27  1  0
 26 28  2  0
 28 29  1  0
 29 30  2  0
 30  2  1  0
 10  4  1  0
 30 13  1  0
 24 15  1  0
  5 31  1  0
  6 32  1  0
  8 33  1  0
  9 34  1  0
 10 35  1  0
 11 36  1  0
 15 37  1  1
 17 38  1  1
 18 39  1  0
 18 40  1  0
 19 41  1  0
 20 42  1  6
 21 43  1  0
 22 44  1  1
 23 45  1  0
 24 46  1  6
 25 47  1  0
 27 48  1  0
 28 49  1  0
 29 50  1  0
M  END
>  <meeko>  (10) 
{"is_sidechain": [false], "free_energy": -6.555, "intermolecular_energy": -8.705, "internal_energy": -0.904}

$$$$
puerarin_run01
     RDKit          3D

 50 53  0  0  0  0  0  0  0  0999 V2000
   30.0410   -8.4040   -9.2880 O   0  0  0  0  0  0  0  0  0  0  0  0
   29.3680   -9.0240   -8.4750 C   0  0  0  0  0  0  0  0  0  0  0  0
   29.5830  -10.4710   -8.1990 C   0  0  0  0  0  0  0  0  0  0  0  0
   30.5870  -11.2630   -8.9280 C   0  0  0  0  0  0  0  0  0  0  0  0
   31.8730  -11.4180   -8.4060 C   0  0  0  0  0  0  0  0  0  0  0  0
   32.8230  -12.1680   -9.0980 C   0  0  0  0  0  0  0  0  0  0  0  0
   32.4900  -12.7670  -10.3140 C   0  0  0  0  0  0  0  0  0  0  0  0
   33.4180  -13.4980  -10.9890 O   0  0  0  0  0  0  0  0  0  0  0  0
   31.2070  -12.6130  -10.8370 C   0  0  0  0  0  0  0  0  0  0  0  0
   30.2560  -11.8630  -10.1460 C   0  0  0  0  0  0  0  0  0  0  0  0
   28.8070  -11.0400   -7.2640 C   0  0  0  0  0  0  0  0  0  0  0  0
   27.8260  -10.4280   -6.5220 O   0  0  0  0  0  0  0  0  0  0  0  0
   27.5860   -9.0990   -6.7610 C   0  0  0  0  0  0  0  0  0  0  0  0
   26.5750   -8.4900   -6.0140 C   0  0  0  0  0  0  0  0  0  0  0  0
   25.7910   -9.2860   -4.9900 C   0  0  2  0  0  0  0  0  0  0  0  0
   26.7030   -9.6880   -3.9620 O   0  0  0  0  0  0  0  0  0  0  0  0
   26.0580  -10.3710   -2.8870 C   0  0  2  0  0  0  0  0  0  0  0  0
   27.1130  -10.6400   -1.8170 C   0  0  0  0  0  0  0  0  0  0  0  0
   27.9820   -9.5240   -1.7510 O   0  0  0  0  0  0  0  0  0  0  0  0
   25.4240  -11.6680   -3.3950 C   0  0  1  0  0  0  0  0  0  0  0  0
   24.7200  -12.2970   -2.3290 O   0  0  0  0  0  0  0  0  0  0  0  0
   24.4540  -11.3840   -4.5420 C   0  0  2  0  0  0  0  0  0  0  0  0
   24.0700  -12.6350   -5.1150 O   0  0  0  0  0  0  0  0  0  0  0  0
   25.1030  -10.5080   -5.6170 C   0  0  1  0  0  0  0  0  0  0  0  0
   24.0920  -10.0510   -6.5160 O   0  0  0  0  0  0  0  0  0  0  0  0
   26.2850   -7.1400   -6.2130 C   0  0  0  0  0  0  0  0  0  0  0  0
   25.3040   -6.5260   -5.4960 O   0  0  0  0  0  0  0  0  0  0  0  0
   27.0030   -6.4000   -7.1530 C   0  0  0  0  0  0  0  0  0  0  0  0
   28.0140   -7.0080   -7.9000 C   0  0  0  0  0  0  0  0  0  0  0  0
   28.3020   -8.3610   -7.7000 C   0  0  0  0  0  0  0  0  0  0  0  0
   32.1368  -10.9476   -7.4473 H   0  0  0  0  0  0  0  0  0  0  0  0
   33.8356  -12.2878   -8.6854 H   0  0  0  0  0  0  0  0  0  0  0  0
   33.7140  -12.9920  -11.7650 H   0  0  0  0  0  0  0  0  0  0  0  0
   30.9445  -13.0837  -11.7959 H   0  0  0  0  0  0  0  0  0  0  0  0
   29.2440  -11.7435  -10.5601 H   0  0  0  0  0  0  0  0  0  0  0  0
   28.9740  -12.1100   -7.0711 H   0  0  0  0  0  0  0  0  0  0  0  0
   24.9881   -8.6596   -4.5741 H   0  0  0  0  0  0  0  0  0  0  0  0
   25.2466   -9.7638   -2.4594 H   0  0  0  0  0  0  0  0  0  0  0  0
   26.6240  -10.7874   -0.8428 H   0  0  0  0  0  0  0  0  0  0  0  0
   27.6828  -11.5464   -2.0695 H   0  0  0  0  0  0  0  0  0  0  0  0
   27.5760   -8.8050   -2.2640 H   0  0  0  0  0  0  0  0  0  0  0  0
   26.2223  -12.3288   -3.7640 H   0  0  0  0  0  0  0  0  0  0  0  0
   23.9550  -11.7410   -2.1030 H   0  0  0  0  0  0  0  0  0  0  0  0
   23.5800  -10.8423   -4.1513 H   0  0  0  0  0  0  0  0  0  0  0  0
   24.0120  -13.2800   -4.3890 H   0  0  0  0  0  0  0  0  0  0  0  0
   25.8576  -11.1075   -6.1473 H   0  0  0  0  0  0  0  0  0  0  0  0
   24.5330   -9.7090   -7.3120 H   0  0  0  0  0  0  0  0  0  0  0  0
   24.9760   -7.1370   -4.8140 H   0  0  0  0  0  0  0  0  0  0  0  0
   26.7722   -5.3354   -7.3059 H   0  0  0  0  0  0  0  0  0  0  0  0
   28.5805   -6.4255   -8.6415 H   0  0  0  0  0  0  0  0  0  0  0  0
  1  2  2  0
  2  3  1  0
  3  4  1  0
  4  5  2  0
  5  6  1  0
  6  7  2  0
  7  8  1  0
  7  9  1  0
  9 10  2  0
  3 11  2  0
 11 12  1  0
 12 13  1  0
 13 14  2  0
 14 15  1  0
 15 16  1  0
 16 17  1  0
 17 18  1  0
 18 19  1  0
 17 20  1  0
 20 21  1  0
 20 22  1  0
 22 23  1  0
 22 24  1  0
 24 25  1  0
 14 26  1  0
 26 27  1  0
 26 28  2  0
 28 29  1  0
 29 30  2  0
 30  2  1  0
 10  4  1  0
 30 13  1  0
 24 15  1  0
  5 31  1  0
  6 32  1  0
  8 33  1  0
  9 34  1  0
 10 35  1  0
 11 36  1  0
 15 37  1  1
 17 38  1  1
 18 39  1  0
 18 40  1  0
 19 41  1  0
 20 42  1  6
 21 43  1  0
 22 44  1  1
 23 45  1  0
 24 46  1  6
 25 47  1  0
 27 48  1  0
 28 49  1  0
 29 50  1  0
M  END
>  <meeko>  (11) 
{"is_sidechain": [false], "free_energy": -6.492, "intermolecular_energy": -9.163, "internal_energy": -0.361}

$$$$
puerarin_run01
     RDKit          3D

 50 53  0  0  0  0  0  0  0  0999 V2000
   27.8520   -7.6780   -5.7080 O   0  0  0  0  0  0  0  0  0  0  0  0
   28.0660   -8.7030   -6.3420 C   0  0  0  0  0  0  0  0  0  0  0  0
   27.4150   -9.9990   -6.0070 C   0  0  0  0  0  0  0  0  0  0  0  0
   26.5100  -10.1420   -4.8560 C   0  0  0  0  0  0  0  0  0  0  0  0
   27.0160  -10.5100   -3.6070 C   0  0  0  0  0  0  0  0  0  0  0  0
   26.1580  -10.6450   -2.5160 C   0  0  0  0  0  0  0  0  0  0  0  0
   24.7910  -10.4120   -2.6700 C   0  0  0  0  0  0  0  0  0  0  0  0
   23.9540  -10.5450   -1.6050 O   0  0  0  0  0  0  0  0  0  0  0  0
   24.2830  -10.0440   -3.9150 C   0  0  0  0  0  0  0  0  0  0  0  0
   25.1410   -9.9090   -5.0070 C   0  0  0  0  0  0  0  0  0  0  0  0
   27.7010  -11.0510   -6.7900 C   0  0  0  0  0  0  0  0  0  0  0  0
   28.5350  -11.0630   -7.8820 O   0  0  0  0  0  0  0  0  0  0  0  0
   29.1680   -9.8920   -8.2110 C   0  0  0  0  0  0  0  0  0  0  0  0
   30.0270   -9.9190   -9.3110 C   0  0  0  0  0  0  0  0  0  0  0  0
   30.2350  -11.2020  -10.0910 C   0  0  2  0  0  0  0  0  0  0  0  0
   31.6400  -11.3450  -10.3260 O   0  0  0  0  0  0  0  0  0  0  0  0
   31.9700  -12.5720  -10.9780 C   0  0  2  0  0  0  0  0  0  0  0  0
   33.4910  -12.6500  -11.0640 C   0  0  0  0  0  0  0  0  0  0  0  0
   33.8740  -14.0130  -11.0320 O   0  0  0  0  0  0  0  0  0  0  0  0
   31.3210  -12.6210  -12.3630 C   0  0  1  0  0  0  0  0  0  0  0  0
   31.5960  -13.8810  -12.9670 O   0  0  0  0  0  0  0  0  0  0  0  0
   29.8080  -12.4290  -12.2600 C   0  0  2  0  0  0  0  0  0  0  0  0
   29.2940  -12.2610  -13.5820 O   0  0  0  0  0  0  0  0  0  0  0  0
   29.4580  -11.2000  -11.4170 C   0  0  1  0  0  0  0  0  0  0  0  0
   28.0600  -11.2180  -11.1270 O   0  0  0  0  0  0  0  0  0  0  0  0
   30.6990   -8.7590   -9.6940 C   0  0  0  0  0  0  0  0  0  0  0  0
   31.5420   -8.7620  -10.7640 O   0  0  0  0  0  0  0  0  0  0  0  0
   30.5130   -7.5740   -8.9810 C   0  0  0  0  0  0  0  0  0  0  0  0
   29.6540   -7.5450   -7.8810 C   0  0  0  0  0  0  0  0  0  0  0  0
   28.9820   -8.7090   -7.4990 C   0  0  0  0  0  0  0  0  0  0  0  0
   28.0935  -10.6937   -3.4838 H   0  0  0  0  0  0  0  0  0  0  0  0
   26.5591  -10.9353   -1.5337 H   0  0  0  0  0  0  0  0  0  0  0  0
   23.7520  -11.4880   -1.4800 H   0  0  0  0  0  0  0  0  0  0  0  0
   23.2053   -9.8600   -4.0365 H   0  0  0  0  0  0  0  0  0  0  0  0
   24.7386   -9.6185   -5.9887 H   0  0  0  0  0  0  0  0  0  0  0  0
   27.2168  -12.0039   -6.5302 H   0  0  0  0  0  0  0  0  0  0  0  0
   29.8501  -12.0521   -9.5086 H   0  0  0  0  0  0  0  0  0  0  0  0
   31.5889  -13.4369  -10.4153 H   0  0  0  0  0  0  0  0  0  0  0  0
   33.8335  -12.1904  -12.0028 H   0  0  0  0  0  0  0  0  0  0  0  0
   33.9442  -12.1114  -10.2187 H   0  0  0  0  0  0  0  0  0  0  0  0
   34.6880  -14.0780  -10.5030 H   0  0  0  0  0  0  0  0  0  0  0  0
   31.7375  -11.8081  -12.9760 H   0  0  0  0  0  0  0  0  0  0  0  0
   32.5060  -13.8600  -13.3080 H   0  0  0  0  0  0  0  0  0  0  0  0
   29.3640  -13.3084  -11.7706 H   0  0  0  0  0  0  0  0  0  0  0  0
   29.9140  -11.6850  -14.0620 H   0  0  0  0  0  0  0  0  0  0  0  0
   29.7284  -10.2982  -11.9859 H   0  0  0  0  0  0  0  0  0  0  0  0
   27.9500  -11.4990  -10.2030 H   0  0  0  0  0  0  0  0  0  0  0  0
   31.6100   -9.6670  -11.1140 H   0  0  0  0  0  0  0  0  0  0  0  0
   31.0445   -6.6606   -9.2864 H   0  0  0  0  0  0  0  0  0  0  0  0
   29.5070   -6.6113   -7.3183 H   0  0  0  0  0  0  0  0  0  0  0  0
  1  2  2  0
  2  3  1  0
  3  4  1  0
  4  5  2  0
  5  6  1  0
  6  7  2  0
  7  8  1  0
  7  9  1  0
  9 10  2  0
  3 11  2  0
 11 12  1  0
 12 13  1  0
 13 14  2  0
 14 15  1  0
 15 16  1  0
 16 17  1  0
 17 18  1  0
 18 19  1  0
 17 20  1  0
 20 21  1  0
 20 22  1  0
 22 23  1  0
 22 24  1  0
 24 25  1  0
 14 26  1  0
 26 27  1  0
 26 28  2  0
 28 29  1  0
 29 30  2  0
 30  2  1  0
 10  4  1  0
 30 13  1  0
 24 15  1  0
  5 31  1  0
  6 32  1  0
  8 33  1  0
  9 34  1  0
 10 35  1  0
 11 36  1  0
 15 37  1  1
 17 38  1  1
 18 39  1  0
 18 40  1  0
 19 41  1  0
 20 42  1  6
 21 43  1  0
 22 44  1  1
 23 45  1  0
 24 46  1  6
 25 47  1  0
 27 48  1  0
 28 49  1  0
 29 50  1  0
M  END
>  <meeko>  (12) 
{"is_sidechain": [false], "free_energy": -6.459, "intermolecular_energy": -8.328, "internal_energy": -1.151}

$$$$
puerarin_run01
     RDKit          3D

 50 53  0  0  0  0  0  0  0  0999 V2000
   30.9980   -6.6910   -7.5860 O   0  0  0  0  0  0  0  0  0  0  0  0
   30.2330   -7.5970   -7.2820 C   0  0  0  0  0  0  0  0  0  0  0  0
   30.5760   -9.0320   -7.4840 C   0  0  0  0  0  0  0  0  0  0  0  0
   31.8380   -9.4500   -8.1150 C   0  0  0  0  0  0  0  0  0  0  0  0
   31.8510   -9.8740   -9.4450 C   0  0  0  0  0  0  0  0  0  0  0  0
   33.0480  -10.2700  -10.0430 C   0  0  0  0  0  0  0  0  0  0  0  0
   34.2350  -10.2430   -9.3110 C   0  0  0  0  0  0  0  0  0  0  0  0
   35.4020  -10.6300   -9.8940 O   0  0  0  0  0  0  0  0  0  0  0  0
   34.2250   -9.8200   -7.9820 C   0  0  0  0  0  0  0  0  0  0  0  0
   33.0290   -9.4240   -7.3840 C   0  0  0  0  0  0  0  0  0  0  0  0
   29.6740   -9.9410   -7.0850 C   0  0  0  0  0  0  0  0  0  0  0  0
   28.4560   -9.6920   -6.4990 O   0  0  0  0  0  0  0  0  0  0  0  0
   28.0960   -8.3830   -6.3130 C   0  0  0  0  0  0  0  0  0  0  0  0
   26.8500   -8.1400   -5.7340 C   0  0  0  0  0  0  0  0  0  0  0  0
   25.9500   -9.2930   -5.3370 C   0  0  2  0  0  0  0  0  0  0  0  0
   26.3770   -9.7550   -4.0500 O   0  0  0  0  0  0  0  0  0  0  0  0
   25.5410  -10.7870   -3.5280 C   0  0  2  0  0  0  0  0  0  0  0  0
   26.0330  -11.1050   -2.1190 C   0  0  0  0  0  0  0  0  0  0  0  0
   24.9540  -11.6430   -1.3760 O   0  0  0  0  0  0  0  0  0  0  0  0
   25.5950  -12.0160   -4.4370 C   0  0  1  0  0  0  0  0  0  0  0  0
   24.6970  -13.0070   -3.9440 O   0  0  0  0  0  0  0  0  0  0  0  0
   25.2040  -11.6500   -5.8690 C   0  0  2  0  0  0  0  0  0  0  0  0
   25.4880  -12.7730   -6.7050 O   0  0  0  0  0  0  0  0  0  0  0  0
   25.9900  -10.4330   -6.3660 C   0  0  1  0  0  0  0  0  0  0  0  0
   25.4060   -9.9690   -7.5840 O   0  0  0  0  0  0  0  0  0  0  0  0
   26.4290   -6.8280   -5.5190 C   0  0  0  0  0  0  0  0  0  0  0  0
   25.2170   -6.5680   -4.9550 O   0  0  0  0  0  0  0  0  0  0  0  0
   27.2530   -5.7600   -5.8800 C   0  0  0  0  0  0  0  0  0  0  0  0
   28.4990   -6.0010   -6.4590 C   0  0  0  0  0  0  0  0  0  0  0  0
   28.9190   -7.3170   -6.6750 C   0  0  0  0  0  0  0  0  0  0  0  0
   30.9154   -9.8960  -10.0230 H   0  0  0  0  0  0  0  0  0  0  0  0
   33.0555  -10.6033  -11.0913 H   0  0  0  0  0  0  0  0  0  0  0  0
   35.2290  -10.8620  -10.8220 H   0  0  0  0  0  0  0  0  0  0  0  0
   35.1613   -9.7987   -7.4050 H   0  0  0  0  0  0  0  0  0  0  0  0
   33.0230   -9.0908   -6.3357 H   0  0  0  0  0  0  0  0  0  0  0  0
   29.9369  -10.9973   -7.2435 H   0  0  0  0  0  0  0  0  0  0  0  0
   24.9063   -8.9476   -5.2991 H   0  0  0  0  0  0  0  0  0  0  0  0
   24.4899  -10.4654   -3.4871 H   0  0  0  0  0  0  0  0  0  0  0  0
   26.8513  -11.8384   -2.1686 H   0  0  0  0  0  0  0  0  0  0  0  0
   26.4046  -10.1900   -1.6345 H   0  0  0  0  0  0  0  0  0  0  0  0
   24.9120  -11.1650   -0.5300 H   0  0  0  0  0  0  0  0  0  0  0  0
   26.6241  -12.4044   -4.4409 H   0  0  0  0  0  0  0  0  0  0  0  0
   24.8820  -13.1360   -2.9980 H   0  0  0  0  0  0  0  0  0  0  0  0
   24.1344  -11.3948   -5.8988 H   0  0  0  0  0  0  0  0  0  0  0  0
   26.2880  -12.5590   -7.2150 H   0  0  0  0  0  0  0  0  0  0  0  0
   27.0365  -10.7336   -6.5222 H   0  0  0  0  0  0  0  0  0  0  0  0
   24.4730   -9.7620   -7.4080 H   0  0  0  0  0  0  0  0  0  0  0  0
   24.9450   -7.3300   -4.4170 H   0  0  0  0  0  0  0  0  0  0  0  0
   26.9188   -4.7263   -5.7074 H   0  0  0  0  0  0  0  0  0  0  0  0
   29.1479   -5.1598   -6.7442 H   0  0  0  0  0  0  0  0  0  0  0  0
  1  2  2  0
  2  3  1  0
  3  4  1  0
  4  5  2  0
  5  6  1  0
  6  7  2  0
  7  8  1  0
  7  9  1  0
  9 10  2  0
  3 11  2  0
 11 12  1  0
 12 13  1  0
 13 14  2  0
 14 15  1  0
 15 16  1  0
 16 17  1  0
 17 18  1  0
 18 19  1  0
 17 20  1  0
 20 21  1  0
 20 22  1  0
 22 23  1  0
 22 24  1  0
 24 25  1  0
 14 26  1  0
 26 27  1  0
 26 28  2  0
 28 29  1  0
 29 30  2  0
 30  2  1  0
 10  4  1  0
 30 13  1  0
 24 15  1  0
  5 31  1  0
  6 32  1  0
  8 33  1  0
  9 34  1  0
 10 35  1  0
 11 36  1  0
 15 37  1  1
 17 38  1  1
 18 39  1  0
 18 40  1  0
 19 41  1  0
 20 42  1  6
 21 43  1  0
 22 44  1  1
 23 45  1  0
 24 46  1  6
 25 47  1  0
 27 48  1  0
 28 49  1  0
 29 50  1  0
M  END
>  <meeko>  (13) 
{"is_sidechain": [false], "free_energy": -6.456, "intermolecular_energy": -9.132, "internal_energy": -0.342}

$$$$
puerarin_run01
     RDKit          3D

 50 53  0  0  0  0  0  0  0  0999 V2000
   29.4670   -9.1880  -11.6620 O   0  0  0  0  0  0  0  0  0  0  0  0
   29.3510   -9.7530  -10.5830 C   0  0  0  0  0  0  0  0  0  0  0  0
   30.1110  -10.9870  -10.2430 C   0  0  0  0  0  0  0  0  0  0  0  0
   31.0130  -11.6380  -11.2070 C   0  0  0  0  0  0  0  0  0  0  0  0
   30.5580  -12.7070  -11.9820 C   0  0  0  0  0  0  0  0  0  0  0  0
   31.4130  -13.3230  -12.8960 C   0  0  0  0  0  0  0  0  0  0  0  0
   32.7250  -12.8710  -13.0380 C   0  0  0  0  0  0  0  0  0  0  0  0
   33.5590  -13.4720  -13.9290 O   0  0  0  0  0  0  0  0  0  0  0  0
   33.1820  -11.8030  -12.2660 C   0  0  0  0  0  0  0  0  0  0  0  0
   32.3270  -11.1870  -11.3510 C   0  0  0  0  0  0  0  0  0  0  0  0
   29.9280  -11.5040   -9.0190 C   0  0  0  0  0  0  0  0  0  0  0  0
   29.1100  -11.0120   -8.0300 O   0  0  0  0  0  0  0  0  0  0  0  0
   28.3790   -9.8870   -8.3120 C   0  0  0  0  0  0  0  0  0  0  0  0
   27.5370   -9.4050   -7.3080 C   0  0  0  0  0  0  0  0  0  0  0  0
   27.4530  -10.1160   -5.9710 C   0  0  2  0  0  0  0  0  0  0  0  0
   26.1000  -10.0160   -5.5110 O   0  0  0  0  0  0  0  0  0  0  0  0
   25.8750  -10.7320   -4.2970 C   0  0  2  0  0  0  0  0  0  0  0  0
   24.3850  -10.6410   -3.9810 C   0  0  0  0  0  0  0  0  0  0  0  0
   24.1640   -9.4950   -3.1780 O   0  0  0  0  0  0  0  0  0  0  0  0
   26.7290  -10.1410   -3.1730 C   0  0  1  0  0  0  0  0  0  0  0  0
   26.5510  -10.9130   -1.9900 O   0  0  0  0  0  0  0  0  0  0  0  0
   28.2080  -10.1410   -3.5590 C   0  0  2  0  0  0  0  0  0  0  0  0
   28.9190   -9.3820   -2.5800 O   0  0  0  0  0  0  0  0  0  0  0  0
   28.4240   -9.5190   -4.9410 C   0  0  1  0  0  0  0  0  0  0  0  0
   29.7610   -9.7860   -5.3660 O   0  0  0  0  0  0  0  0  0  0  0  0
   26.7700   -8.2640   -7.5350 C   0  0  0  0  0  0  0  0  0  0  0  0
   25.9420   -7.7770   -6.5700 O   0  0  0  0  0  0  0  0  0  0  0  0
   26.8430   -7.6040   -8.7630 C   0  0  0  0  0  0  0  0  0  0  0  0
   27.6840   -8.0840   -9.7680 C   0  0  0  0  0  0  0  0  0  0  0  0
   28.4520   -9.2290   -9.5380 C   0  0  0  0  0  0  0  0  0  0  0  0
   29.5234  -13.0639  -11.8715 H   0  0  0  0  0  0  0  0  0  0  0  0
   31.0526  -14.1653  -13.5048 H   0  0  0  0  0  0  0  0  0  0  0  0
   34.1840  -12.8110  -14.2720 H   0  0  0  0  0  0  0  0  0  0  0  0
   34.2164  -11.4462  -12.3784 H   0  0  0  0  0  0  0  0  0  0  0  0
   32.6885  -10.3451  -10.7423 H   0  0  0  0  0  0  0  0  0  0  0  0
   30.4920  -12.4181   -8.7816 H   0  0  0  0  0  0  0  0  0  0  0  0
   27.7449  -11.1692   -6.0959 H   0  0  0  0  0  0  0  0  0  0  0  0
   26.1657  -11.7880   -4.3984 H   0  0  0  0  0  0  0  0  0  0  0  0
   23.8122  -10.5547   -4.9161 H   0  0  0  0  0  0  0  0  0  0  0  0
   24.0578  -11.5446   -3.4457 H   0  0  0  0  0  0  0  0  0  0  0  0
   24.1610   -8.7200   -3.7660 H   0  0  0  0  0  0  0  0  0  0  0  0
   26.4108   -9.1026   -2.9984 H   0  0  0  0  0  0  0  0  0  0  0  0
   25.6020  -10.9230   -1.7760 H   0  0  0  0  0  0  0  0  0  0  0  0
   28.5716  -11.1784   -3.5979 H   0  0  0  0  0  0  0  0  0  0  0  0
   28.9100   -8.4540   -2.8700 H   0  0  0  0  0  0  0  0  0  0  0  0
   28.2442   -8.4362   -4.8690 H   0  0  0  0  0  0  0  0  0  0  0  0
   30.0240   -9.0820   -5.9830 H   0  0  0  0  0  0  0  0  0  0  0  0
   25.8440   -8.4420   -5.8680 H   0  0  0  0  0  0  0  0  0  0  0  0
   26.2362   -6.7035   -8.9389 H   0  0  0  0  0  0  0  0  0  0  0  0
   27.7421   -7.5642  -10.7357 H   0  0  0  0  0  0  0  0  0  0  0  0
  1  2  2  0
  2  3  1  0
  3  4  1  0
  4  5  2  0
  5  6  1  0
  6  7  2  0
  7  8  1  0
  7  9  1  0
  9 10  2  0
  3 11  2  0
 11 12  1  0
 12 13  1  0
 13 14  2  0
 14 15  1  0
 15 16  1  0
 16 17  1  0
 17 18  1  0
 18 19  1  0
 17 20  1  0
 20 21  1  0
 20 22  1  0
 22 23  1  0
 22 24  1  0
 24 25  1  0
 14 26  1  0
 26 27  1  0
 26 28  2  0
 28 29  1  0
 29 30  2  0
 30  2  1  0
 10  4  1  0
 30 13  1  0
 24 15  1  0
  5 31  1  0
  6 32  1  0
  8 33  1  0
  9 34  1  0
 10 35  1  0
 11 36  1  0
 15 37  1  6
 17 38  1  6
 18 39  1  0
 18 40  1  0
 19 41  1  0
 20 42  1  1
 21 43  1  0
 22 44  1  6
 23 45  1  0
 24 46  1  1
 25 47  1  0
 27 48  1  0
 28 49  1  0
 29 50  1  0
M  END
>  <meeko>  (14) 
{"is_sidechain": [false], "free_energy": -6.319, "intermolecular_energy": -8.21, "internal_energy": -1.08}

$$$$
puerarin_run01
     RDKit          3D

 50 53  0  0  0  0  0  0  0  0999 V2000
   31.5490  -10.0090   -9.8030 O   0  0  0  0  0  0  0  0  0  0  0  0
   30.3730  -10.0860   -9.4690 C   0  0  0  0  0  0  0  0  0  0  0  0
   29.3270  -10.6580  -10.3610 C   0  0  0  0  0  0  0  0  0  0  0  0
   29.6320  -11.1190  -11.7240 C   0  0  0  0  0  0  0  0  0  0  0  0
   30.0040  -12.4460  -11.9500 C   0  0  0  0  0  0  0  0  0  0  0  0
   30.2930  -12.8830  -13.2430 C   0  0  0  0  0  0  0  0  0  0  0  0
   30.2110  -11.9930  -14.3140 C   0  0  0  0  0  0  0  0  0  0  0  0
   30.4940  -12.4190  -15.5750 O   0  0  0  0  0  0  0  0  0  0  0  0
   29.8390  -10.6670  -14.0920 C   0  0  0  0  0  0  0  0  0  0  0  0
   29.5500  -10.2300  -12.7990 C   0  0  0  0  0  0  0  0  0  0  0  0
   28.0760  -10.7210   -9.8790 C   0  0  0  0  0  0  0  0  0  0  0  0
   27.6500  -10.3150   -8.6370 O   0  0  0  0  0  0  0  0  0  0  0  0
   28.5810   -9.7650   -7.7940 C   0  0  0  0  0  0  0  0  0  0  0  0
   28.1350   -9.3400   -6.5420 C   0  0  0  0  0  0  0  0  0  0  0  0
   26.6770   -9.4880   -6.1550 C   0  0  2  0  0  0  0  0  0  0  0  0
   26.2680   -8.2700   -5.5240 O   0  0  0  0  0  0  0  0  0  0  0  0
   24.8790   -8.2560   -5.1950 C   0  0  2  0  0  0  0  0  0  0  0  0
   24.5530   -6.8730   -4.6390 C   0  0  0  0  0  0  0  0  0  0  0  0
   23.1460   -6.7200   -4.6090 O   0  0  0  0  0  0  0  0  0  0  0  0
   24.5680   -9.3610   -4.1830 C   0  0  1  0  0  0  0  0  0  0  0  0
   23.1670   -9.3830   -3.9260 O   0  0  0  0  0  0  0  0  0  0  0  0
   25.0040  -10.7250   -4.7180 C   0  0  2  0  0  0  0  0  0  0  0  0
   24.8970  -11.6710   -3.6530 O   0  0  0  0  0  0  0  0  0  0  0  0
   26.4490  -10.6890   -5.2240 C   0  0  1  0  0  0  0  0  0  0  0  0
   26.7170  -11.8880   -5.9510 O   0  0  0  0  0  0  0  0  0  0  0  0
   29.0360   -8.7730   -5.6410 C   0  0  0  0  0  0  0  0  0  0  0  0
   28.6220   -8.3510   -4.4140 O   0  0  0  0  0  0  0  0  0  0  0  0
   30.3800   -8.6340   -5.9890 C   0  0  0  0  0  0  0  0  0  0  0  0
   30.8280   -9.0590   -7.2400 C   0  0  0  0  0  0  0  0  0  0  0  0
   29.9230   -9.6260   -8.1420 C   0  0  0  0  0  0  0  0  0  0  0  0
   30.0693  -13.1486  -11.1062 H   0  0  0  0  0  0  0  0  0  0  0  0
   30.5854  -13.9289  -13.4179 H   0  0  0  0  0  0  0  0  0  0  0  0
   29.7700  -12.1520  -16.1680 H   0  0  0  0  0  0  0  0  0  0  0  0
   29.7735   -9.9656  -14.9368 H   0  0  0  0  0  0  0  0  0  0  0  0
   29.2571   -9.1840  -12.6255 H   0  0  0  0  0  0  0  0  0  0  0  0
   27.3113  -11.1418  -10.5484 H   0  0  0  0  0  0  0  0  0  0  0  0
   26.0758   -9.6782   -7.0564 H   0  0  0  0  0  0  0  0  0  0  0  0
   24.2585   -8.4507   -6.0822 H   0  0  0  0  0  0  0  0  0  0  0  0
   24.9582   -6.7777   -3.6208 H   0  0  0  0  0  0  0  0  0  0  0  0
   25.0026   -6.0961   -5.2748 H   0  0  0  0  0  0  0  0  0  0  0  0
   22.8010   -6.9980   -5.4750 H   0  0  0  0  0  0  0  0  0  0  0  0
   25.1209   -9.1536   -3.2550 H   0  0  0  0  0  0  0  0  0  0  0  0
   22.7030   -9.2390   -4.7690 H   0  0  0  0  0  0  0  0  0  0  0  0
   24.3590  -11.0053   -5.5638 H   0  0  0  0  0  0  0  0  0  0  0  0
   24.3830  -11.2500   -2.9430 H   0  0  0  0  0  0  0  0  0  0  0  0
   27.1200  -10.5986   -4.3571 H   0  0  0  0  0  0  0  0  0  0  0  0
   25.8830  -12.3820   -6.0310 H   0  0  0  0  0  0  0  0  0  0  0  0
   29.3950   -8.2480   -3.8340 H   0  0  0  0  0  0  0  0  0  0  0  0
   31.0882   -8.1881   -5.2751 H   0  0  0  0  0  0  0  0  0  0  0  0
   31.8873   -8.9486   -7.5150 H   0  0  0  0  0  0  0  0  0  0  0  0
  1  2  2  0
  2  3  1  0
  3  4  1  0
  4  5  2  0
  5  6  1  0
  6  7  2  0
  7  8  1  0
  7  9  1  0
  9 10  2  0
  3 11  2  0
 11 12  1  0
 12 13  1  0
 13 14  2  0
 14 15  1  0
 15 16  1  0
 16 17  1  0
 17 18  1  0
 18 19  1  0
 17 20  1  0
 20 21  1  0
 20 22  1  0
 22 23  1  0
 22 24  1  0
 24 25  1  0
 14 26  1  0
 26 27  1  0
 26 28  2  0
 28 29  1  0
 29 30  2  0
 30  2  1  0
 10  4  1  0
 30 13  1  0
 24 15  1  0
  5 31  1  0
  6 32  1  0
  8 33  1  0
  9 34  1  0
 10 35  1  0
 11 36  1  0
 15 37  1  6
 17 38  1  6
 18 39  1  0
 18 40  1  0
 19 41  1  0
 20 42  1  1
 21 43  1  0
 22 44  1  6
 23 45  1  0
 24 46  1  1
 25 47  1  0
 27 48  1  0
 28 49  1  0
 29 50  1  0
M  END
>  <meeko>  (15) 
{"is_sidechain": [false], "free_energy": -6.29, "intermolecular_energy": -8.114, "internal_energy": -1.137}

$$$$
puerarin_run01
     RDKit          3D

 50 53  0  0  0  0  0  0  0  0999 V2000
   29.1450   -6.4060  -10.0550 O   0  0  0  0  0  0  0  0  0  0  0  0
   29.0060   -7.0040   -8.9950 C   0  0  0  0  0  0  0  0  0  0  0  0
   29.9700   -6.8640   -7.8690 C   0  0  0  0  0  0  0  0  0  0  0  0
   31.1820   -6.0380   -7.9790 C   0  0  0  0  0  0  0  0  0  0  0  0
   32.2740   -6.4900   -8.7220 C   0  0  0  0  0  0  0  0  0  0  0  0
   33.4240   -5.7060   -8.8260 C   0  0  0  0  0  0  0  0  0  0  0  0
   33.4840   -4.4670   -8.1870 C   0  0  0  0  0  0  0  0  0  0  0  0
   34.6050   -3.7030   -8.2870 O   0  0  0  0  0  0  0  0  0  0  0  0
   32.3940   -4.0140   -7.4430 C   0  0  0  0  0  0  0  0  0  0  0  0
   31.2450   -4.7970   -7.3390 C   0  0  0  0  0  0  0  0  0  0  0  0
   29.7010   -7.5420   -6.7430 C   0  0  0  0  0  0  0  0  0  0  0  0
   28.6200   -8.3580   -6.5100 O   0  0  0  0  0  0  0  0  0  0  0  0
   27.7200   -8.5270   -7.5300 C   0  0  0  0  0  0  0  0  0  0  0  0
   26.6350   -9.3720   -7.2900 C   0  0  0  0  0  0  0  0  0  0  0  0
   26.4820  -10.0620   -5.9500 C   0  0  2  0  0  0  0  0  0  0  0  0
   25.9820  -11.3810   -6.1950 O   0  0  0  0  0  0  0  0  0  0  0  0
   25.8830  -12.1660   -5.0060 C   0  0  2  0  0  0  0  0  0  0  0  0
   25.4520  -13.5700   -5.4180 C   0  0  0  0  0  0  0  0  0  0  0  0
   25.5170  -14.4120   -4.2820 O   0  0  0  0  0  0  0  0  0  0  0  0
   24.8840  -11.5280   -4.0390 C   0  0  1  0  0  0  0  0  0  0  0  0
   24.8550  -12.2780   -2.8290 O   0  0  0  0  0  0  0  0  0  0  0  0
   25.2760  -10.0830   -3.7270 C   0  0  2  0  0  0  0  0  0  0  0  0
   24.1990   -9.4790   -3.0100 O   0  0  0  0  0  0  0  0  0  0  0  0
   25.5430   -9.2900   -5.0090 C   0  0  1  0  0  0  0  0  0  0  0  0
   26.1610   -8.0490   -4.6670 O   0  0  0  0  0  0  0  0  0  0  0  0
   25.6860   -9.5820   -8.2900 C   0  0  0  0  0  0  0  0  0  0  0  0
   24.6190  -10.4020   -8.0780 O   0  0  0  0  0  0  0  0  0  0  0  0
   25.8190   -8.9490   -9.5270 C   0  0  0  0  0  0  0  0  0  0  0  0
   26.9030   -8.1040   -9.7680 C   0  0  0  0  0  0  0  0  0  0  0  0
   27.8540   -7.8950   -8.7650 C   0  0  0  0  0  0  0  0  0  0  0  0
   32.2280   -7.4663   -9.2267 H   0  0  0  0  0  0  0  0  0  0  0  0
   34.2831   -6.0649   -9.4118 H   0  0  0  0  0  0  0  0  0  0  0  0
   35.2960   -4.0820   -7.7170 H   0  0  0  0  0  0  0  0  0  0  0  0
   32.4412   -3.0380   -6.9379 H   0  0  0  0  0  0  0  0  0  0  0  0
   30.3867   -4.4375   -6.7523 H   0  0  0  0  0  0  0  0  0  0  0  0
   30.4218   -7.4333   -5.9192 H   0  0  0  0  0  0  0  0  0  0  0  0
   27.4587  -10.1034   -5.4457 H   0  0  0  0  0  0  0  0  0  0  0  0
   26.8486  -12.2176   -4.4816 H   0  0  0  0  0  0  0  0  0  0  0  0
   24.4215  -13.5440   -5.8019 H   0  0  0  0  0  0  0  0  0  0  0  0
   26.1160  -13.9512   -6.2078 H   0  0  0  0  0  0  0  0  0  0  0  0
   25.3100  -15.3160   -4.5740 H   0  0  0  0  0  0  0  0  0  0  0  0
   23.8901  -11.5292   -4.5104 H   0  0  0  0  0  0  0  0  0  0  0  0
   24.6230  -11.6720   -2.1040 H   0  0  0  0  0  0  0  0  0  0  0  0
   26.2004  -10.0788   -3.1308 H   0  0  0  0  0  0  0  0  0  0  0  0
   23.8630  -10.1400   -2.3810 H   0  0  0  0  0  0  0  0  0  0  0  0
   24.5842   -9.1233   -5.5217 H   0  0  0  0  0  0  0  0  0  0  0  0
   25.7130   -7.7000   -3.8780 H   0  0  0  0  0  0  0  0  0  0  0  0
   23.8280  -10.0060   -8.4800 H   0  0  0  0  0  0  0  0  0  0  0  0
   25.0680   -9.1166  -10.3131 H   0  0  0  0  0  0  0  0  0  0  0  0
   27.0087   -7.6048  -10.7425 H   0  0  0  0  0  0  0  0  0  0  0  0
  1  2  2  0
  2  3  1  0
  3  4  1  0
  4  5  2  0
  5  6  1  0
  6  7  2  0
  7  8  1  0
  7  9  1  0
  9 10  2  0
  3 11  2  0
 11 12  1  0
 12 13  1  0
 13 14  2  0
 14 15  1  0
 15 16  1  0
 16 17  1  0
 17 18  1  0
 18 19  1  0
 17 20  1  0
 20 21  1  0
 20 22  1  0
 22 23  1  0
 22 24  1  0
 24 25  1  0
 14 26  1  0
 26 27  1  0
 26 28  2  0
 28 29  1  0
 29 30  2  0
 30  2  1  0
 10  4  1  0
 30 13  1  0
 24 15  1  0
  5 31  1  0
  6 32  1  0
  8 33  1  0
  9 34  1  0
 10 35  1  0
 11 36  1  0
 15 37  1  1
 17 38  1  1
 18 39  1  0
 18 40  1  0
 19 41  1  0
 20 42  1  6
 21 43  1  0
 22 44  1  1
 23 45  1  0
 24 46  1  6
 25 47  1  0
 27 48  1  0
 28 49  1  0
 29 50  1  0
M  END
>  <meeko>  (16) 
{"is_sidechain": [false], "free_energy": -6.288, "intermolecular_energy": -8.245, "internal_energy": -1.003}

$$$$
puerarin_run01
     RDKit          3D

 50 53  0  0  0  0  0  0  0  0999 V2000
   25.8130  -10.5050   -7.8240 O   0  0  0  0  0  0  0  0  0  0  0  0
   27.0230  -10.6430   -7.7010 C   0  0  0  0  0  0  0  0  0  0  0  0
   27.6560  -11.0090   -6.4040 C   0  0  0  0  0  0  0  0  0  0  0  0
   26.8690  -11.1740   -5.1720 C   0  0  0  0  0  0  0  0  0  0  0  0
   27.0360  -10.2850   -4.1080 C   0  0  0  0  0  0  0  0  0  0  0  0
   26.2890  -10.4420   -2.9400 C   0  0  0  0  0  0  0  0  0  0  0  0
   25.3730  -11.4890   -2.8330 C   0  0  0  0  0  0  0  0  0  0  0  0
   24.6460  -11.6420   -1.6930 O   0  0  0  0  0  0  0  0  0  0  0  0
   25.2050  -12.3780   -3.8940 C   0  0  0  0  0  0  0  0  0  0  0  0
   25.9510  -12.2210   -5.0620 C   0  0  0  0  0  0  0  0  0  0  0  0
   28.9890  -11.1640   -6.3930 C   0  0  0  0  0  0  0  0  0  0  0  0
   29.8440  -11.0260   -7.4600 O   0  0  0  0  0  0  0  0  0  0  0  0
   29.3000  -10.6720   -8.6680 C   0  0  0  0  0  0  0  0  0  0  0  0
   30.1790  -10.5170   -9.7420 C   0  0  0  0  0  0  0  0  0  0  0  0
   31.6670  -10.7350   -9.5530 C   0  0  2  0  0  0  0  0  0  0  0  0
   32.3520   -9.7020  -10.2700 O   0  0  0  0  0  0  0  0  0  0  0  0
   33.7670   -9.7490  -10.0900 C   0  0  2  0  0  0  0  0  0  0  0  0
   34.3610   -8.5390  -10.8060 C   0  0  0  0  0  0  0  0  0  0  0  0
   35.4820   -8.0860  -10.0690 O   0  0  0  0  0  0  0  0  0  0  0  0
   34.3230  -11.0630  -10.6450 C   0  0  1  0  0  0  0  0  0  0  0  0
   35.7220  -11.1280  -10.3890 O   0  0  0  0  0  0  0  0  0  0  0  0
   33.6340  -12.2620   -9.9920 C   0  0  2  0  0  0  0  0  0  0  0  0
   34.0280  -13.4370  -10.7020 O   0  0  0  0  0  0  0  0  0  0  0  0
   32.1100  -12.1230  -10.0410 C   0  0  1  0  0  0  0  0  0  0  0  0
   31.5260  -13.1130   -9.1940 O   0  0  0  0  0  0  0  0  0  0  0  0
   29.6850  -10.1580  -10.9950 C   0  0  0  0  0  0  0  0  0  0  0  0
   30.5230  -10.0010  -12.0560 O   0  0  0  0  0  0  0  0  0  0  0  0
   28.3160   -9.9560  -11.1760 C   0  0  0  0  0  0  0  0  0  0  0  0
   27.4360  -10.1110  -10.1040 C   0  0  0  0  0  0  0  0  0  0  0  0
   27.9330  -10.4700   -8.8480 C   0  0  0  0  0  0  0  0  0  0  0  0
   27.7580   -9.4592   -4.1909 H   0  0  0  0  0  0  0  0  0  0  0  0
   26.4223   -9.7403   -2.1035 H   0  0  0  0  0  0  0  0  0  0  0  0
   23.9820  -10.9330   -1.6460 H   0  0  0  0  0  0  0  0  0  0  0  0
   24.4834  -13.2040   -3.8098 H   0  0  0  0  0  0  0  0  0  0  0  0
   25.8162  -12.9230   -5.8981 H   0  0  0  0  0  0  0  0  0  0  0  0
   29.4454  -11.4295   -5.4280 H   0  0  0  0  0  0  0  0  0  0  0  0
   31.9114  -10.6917   -8.4814 H   0  0  0  0  0  0  0  0  0  0  0  0
   34.0333   -9.7127   -9.0233 H   0  0  0  0  0  0  0  0  0  0  0  0
   34.6752   -8.8256  -11.8205 H   0  0  0  0  0  0  0  0  0  0  0  0
   33.6100   -7.7386  -10.8795 H   0  0  0  0  0  0  0  0  0  0  0  0
   36.2640   -8.5570  -10.4040 H   0  0  0  0  0  0  0  0  0  0  0  0
   34.1342  -11.0950  -11.7282 H   0  0  0  0  0  0  0  0  0  0  0  0
   36.0640  -10.2180  -10.3490 H   0  0  0  0  0  0  0  0  0  0  0  0
   33.9315  -12.3197   -8.9346 H   0  0  0  0  0  0  0  0  0  0  0  0
   34.0250  -14.1730  -10.0670 H   0  0  0  0  0  0  0  0  0  0  0  0
   31.7809  -12.2546  -11.0823 H   0  0  0  0  0  0  0  0  0  0  0  0
   30.6630  -13.3560   -9.5680 H   0  0  0  0  0  0  0  0  0  0  0  0
   31.4090  -10.3200  -11.8130 H   0  0  0  0  0  0  0  0  0  0  0  0
   27.9295   -9.6738  -12.1664 H   0  0  0  0  0  0  0  0  0  0  0  0
   26.3570   -9.9515  -10.2468 H   0  0  0  0  0  0  0  0  0  0  0  0
  1  2  2  0
  2  3  1  0
  3  4  1  0
  4  5  2  0
  5  6  1  0
  6  7  2  0
  7  8  1  0
  7  9  1  0
  9 10  2  0
  3 11  2  0
 11 12  1  0
 12 13  1  0
 13 14  2  0
 14 15  1  0
 15 16  1  0
 16 17  1  0
 17 18  1  0
 18 19  1  0
 17 20  1  0
 20 21  1  0
 20 22  1  0
 22 23  1  0
 22 24  1  0
 24 25  1  0
 14 26  1  0
 26 27  1  0
 26 28  2  0
 28 29  1  0
 29 30  2  0
 30  2  1  0
 10  4  1  0
 30 13  1  0
 24 15  1  0
  5 31  1  0
  6 32  1  0
  8 33  1  0
  9 34  1  0
 10 35  1  0
 11 36  1  0
 15 37  1  1
 17 38  1  1
 18 39  1  0
 18 40  1  0
 19 41  1  0
 20 42  1  6
 21 43  1  0
 22 44  1  1
 23 45  1  0
 24 46  1  6
 25 47  1  0
 27 48  1  0
 28 49  1  0
 29 50  1  0
M  END
>  <meeko>  (17) 
{"is_sidechain": [false], "free_energy": -6.23, "intermolecular_energy": -8.152, "internal_energy": -1.018}

$$$$
puerarin_run01
     RDKit          3D

 50 53  0  0  0  0  0  0  0  0999 V2000
   25.9530   -9.0310   -6.9980 O   0  0  0  0  0  0  0  0  0  0  0  0
   26.9300   -8.9300   -6.2670 C   0  0  0  0  0  0  0  0  0  0  0  0
   27.3230  -10.0000   -5.3100 C   0  0  0  0  0  0  0  0  0  0  0  0
   26.5280  -11.2270   -5.1430 C   0  0  0  0  0  0  0  0  0  0  0  0
   26.7330  -12.3170   -5.9920 C   0  0  0  0  0  0  0  0  0  0  0  0
   25.9800  -13.4800   -5.8330 C   0  0  0  0  0  0  0  0  0  0  0  0
   25.0190  -13.5560   -4.8240 C   0  0  0  0  0  0  0  0  0  0  0  0
   24.2830  -14.6910   -4.6710 O   0  0  0  0  0  0  0  0  0  0  0  0
   24.8120  -12.4690   -3.9750 C   0  0  0  0  0  0  0  0  0  0  0  0
   25.5650  -11.3060   -4.1340 C   0  0  0  0  0  0  0  0  0  0  0  0
   28.4300   -9.7950   -4.5800 C   0  0  0  0  0  0  0  0  0  0  0  0
   29.2530   -8.6950   -4.6220 O   0  0  0  0  0  0  0  0  0  0  0  0
   28.9140   -7.6800   -5.4790 C   0  0  0  0  0  0  0  0  0  0  0  0
   29.7470   -6.5600   -5.5020 C   0  0  0  0  0  0  0  0  0  0  0  0
   30.9680   -6.4930   -4.6060 C   0  0  2  0  0  0  0  0  0  0  0  0
   31.0440   -5.1670   -4.0730 O   0  0  0  0  0  0  0  0  0  0  0  0
   32.1090   -5.0070   -3.1360 C   0  0  2  0  0  0  0  0  0  0  0  0
   32.0080   -3.5960   -2.5640 C   0  0  0  0  0  0  0  0  0  0  0  0
   32.5020   -3.6120   -1.2370 O   0  0  0  0  0  0  0  0  0  0  0  0
   33.4540   -5.2430   -3.8260 C   0  0  1  0  0  0  0  0  0  0  0  0
   34.5000   -5.1570   -2.8620 O   0  0  0  0  0  0  0  0  0  0  0  0
   33.4900   -6.6210   -4.4870 C   0  0  2  0  0  0  0  0  0  0  0  0
   34.6670   -6.6920   -5.2940 O   0  0  0  0  0  0  0  0  0  0  0  0
   32.2560   -6.8510   -5.3640 C   0  0  1  0  0  0  0  0  0  0  0  0
   32.2000   -8.2290   -5.7350 O   0  0  0  0  0  0  0  0  0  0  0  0
   29.4530   -5.4960   -6.3530 C   0  0  0  0  0  0  0  0  0  0  0  0
   30.2520   -4.3930   -6.3910 O   0  0  0  0  0  0  0  0  0  0  0  0
   28.3310   -5.5500   -7.1810 C   0  0  0  0  0  0  0  0  0  0  0  0
   27.4980   -6.6690   -7.1600 C   0  0  0  0  0  0  0  0  0  0  0  0
   27.7940   -7.7350   -6.3050 C   0  0  0  0  0  0  0  0  0  0  0  0
   27.4901  -12.2580   -6.7878 H   0  0  0  0  0  0  0  0  0  0  0  0
   26.1435  -14.3372   -6.5027 H   0  0  0  0  0  0  0  0  0  0  0  0
   24.8850  -15.4370   -4.5100 H   0  0  0  0  0  0  0  0  0  0  0  0
   24.0545  -12.5291   -3.1797 H   0  0  0  0  0  0  0  0  0  0  0  0
   25.4004  -10.4494   -3.4638 H   0  0  0  0  0  0  0  0  0  0  0  0
   28.7081  -10.5910   -3.8736 H   0  0  0  0  0  0  0  0  0  0  0  0
   30.8704   -7.2314   -3.7965 H   0  0  0  0  0  0  0  0  0  0  0  0
   32.0345   -5.7406   -2.3198 H   0  0  0  0  0  0  0  0  0  0  0  0
   32.6072   -2.9045   -3.1745 H   0  0  0  0  0  0  0  0  0  0  0  0
   30.9604   -3.2605   -2.5719 H   0  0  0  0  0  0  0  0  0  0  0  0
   31.7890   -3.2990   -0.6540 H   0  0  0  0  0  0  0  0  0  0  0  0
   33.5898   -4.4758   -4.6025 H   0  0  0  0  0  0  0  0  0  0  0  0
   34.8950   -4.2700   -2.9260 H   0  0  0  0  0  0  0  0  0  0  0  0
   33.4963   -7.3968   -3.7072 H   0  0  0  0  0  0  0  0  0  0  0  0
   35.4060   -6.3550   -4.7590 H   0  0  0  0  0  0  0  0  0  0  0  0
   32.3349   -6.2090   -6.2537 H   0  0  0  0  0  0  0  0  0  0  0  0
   33.0470   -8.6380   -5.4920 H   0  0  0  0  0  0  0  0  0  0  0  0
   31.1480   -4.6570   -6.6570 H   0  0  0  0  0  0  0  0  0  0  0  0
   28.1029   -4.7085   -7.8517 H   0  0  0  0  0  0  0  0  0  0  0  0
   26.6134   -6.7124   -7.8124 H   0  0  0  0  0  0  0  0  0  0  0  0
  1  2  2  0
  2  3  1  0
  3  4  1  0
  4  5  2  0
  5  6  1  0
  6  7  2  0
  7  8  1  0
  7  9  1  0
  9 10  2  0
  3 11  2  0
 11 12  1  0
 12 13  1  0
 13 14  2  0
 14 15  1  0
 15 16  1  0
 16 17  1  0
 17 18  1  0
 18 19  1  0
 17 20  1  0
 20 21  1  0
 20 22  1  0
 22 23  1  0
 22 24  1  0
 24 25  1  0
 14 26  1  0
 26 27  1  0
 26 28  2  0
 28 29  1  0
 29 30  2  0
 30  2  1  0
 10  4  1  0
 30 13  1  0
 24 15  1  0
  5 31  1  0
  6 32  1  0
  8 33  1  0
  9 34  1  0
 10 35  1  0
 11 36  1  0
 15 37  1  1
 17 38  1  1
 18 39  1  0
 18 40  1  0
 19 41  1  0
 20 42  1  6
 21 43  1  0
 22 44  1  1
 23 45  1  0
 24 46  1  6
 25 47  1  0
 27 48  1  0
 28 49  1  0
 29 50  1  0
M  END
>  <meeko>  (18) 
{"is_sidechain": [false], "free_energy": -6.175, "intermolecular_energy": -7.95, "internal_energy": -1.145}

$$$$
puerarin_run01
     RDKit          3D

 50 53  0  0  0  0  0  0  0  0999 V2000
   26.3330   -6.6560   -5.1390 O   0  0  0  0  0  0  0  0  0  0  0  0
   26.2630   -7.3310   -6.1580 C   0  0  0  0  0  0  0  0  0  0  0  0
   25.9180   -8.7790   -6.1330 C   0  0  0  0  0  0  0  0  0  0  0  0
   25.6900   -9.5040   -4.8740 C   0  0  0  0  0  0  0  0  0  0  0  0
   24.3940   -9.6610   -4.3790 C   0  0  0  0  0  0  0  0  0  0  0  0
   24.1790  -10.3500   -3.1850 C   0  0  0  0  0  0  0  0  0  0  0  0
   25.2600  -10.8830   -2.4820 C   0  0  0  0  0  0  0  0  0  0  0  0
   25.0500  -11.5530   -1.3170 O   0  0  0  0  0  0  0  0  0  0  0  0
   26.5550  -10.7270   -2.9740 C   0  0  0  0  0  0  0  0  0  0  0  0
   26.7710  -10.0390   -4.1680 C   0  0  0  0  0  0  0  0  0  0  0  0
   25.8400   -9.4110   -7.3140 C   0  0  0  0  0  0  0  0  0  0  0  0
   26.0420   -8.8640   -8.5580 O   0  0  0  0  0  0  0  0  0  0  0  0
   26.3810   -7.5370   -8.6200 C   0  0  0  0  0  0  0  0  0  0  0  0
   26.6010   -6.9940   -9.8880 C   0  0  0  0  0  0  0  0  0  0  0  0
   26.4670   -7.8570  -11.1260 C   0  0  2  0  0  0  0  0  0  0  0  0
   27.6050   -7.6050  -11.9580 O   0  0  0  0  0  0  0  0  0  0  0  0
   27.6360   -8.4330  -13.1200 C   0  0  2  0  0  0  0  0  0  0  0  0
   28.9440   -8.1460  -13.8520 C   0  0  0  0  0  0  0  0  0  0  0  0
   28.6910   -7.1900  -14.8650 O   0  0  0  0  0  0  0  0  0  0  0  0
   26.4190   -8.1480  -14.0010 C   0  0  1  0  0  0  0  0  0  0  0  0
   26.4250   -9.0360  -15.1150 O   0  0  0  0  0  0  0  0  0  0  0  0
   25.1220   -8.3350  -13.2130 C   0  0  2  0  0  0  0  0  0  0  0  0
   24.0460   -7.8430  -14.0120 O   0  0  0  0  0  0  0  0  0  0  0  0
   25.1620   -7.5730  -11.8860 C   0  0  1  0  0  0  0  0  0  0  0  0
   24.0620   -7.9920  -11.0770 O   0  0  0  0  0  0  0  0  0  0  0  0
   26.9480   -5.6500  -10.0150 C   0  0  0  0  0  0  0  0  0  0  0  0
   27.1680   -5.0990  -11.2410 O   0  0  0  0  0  0  0  0  0  0  0  0
   27.0730   -4.8480   -8.8790 C   0  0  0  0  0  0  0  0  0  0  0  0
   26.8520   -5.3890   -7.6110 C   0  0  0  0  0  0  0  0  0  0  0  0
   26.5050   -6.7370   -7.4860 C   0  0  0  0  0  0  0  0  0  0  0  0
   23.5407   -9.2406   -4.9315 H   0  0  0  0  0  0  0  0  0  0  0  0
   23.1568  -10.4731   -2.7977 H   0  0  0  0  0  0  0  0  0  0  0  0
   24.0950  -11.7050   -1.2080 H   0  0  0  0  0  0  0  0  0  0  0  0
   27.4075  -11.1470   -2.4200 H   0  0  0  0  0  0  0  0  0  0  0  0
   27.7937   -9.9173   -4.5545 H   0  0  0  0  0  0  0  0  0  0  0  0
   25.5874  -10.4812   -7.2829 H   0  0  0  0  0  0  0  0  0  0  0  0
   26.4285   -8.9162  -10.8318 H   0  0  0  0  0  0  0  0  0  0  0  0
   27.5919   -9.4985  -12.8504 H   0  0  0  0  0  0  0  0  0  0  0  0
   29.6862   -7.7488  -13.1439 H   0  0  0  0  0  0  0  0  0  0  0  0
   29.3380   -9.0716  -14.2970 H   0  0  0  0  0  0  0  0  0  0  0  0
   29.4210   -6.5480  -14.8520 H   0  0  0  0  0  0  0  0  0  0  0  0
   26.4729   -7.1053  -14.3473 H   0  0  0  0  0  0  0  0  0  0  0  0
   26.6730   -8.5270  -15.9050 H   0  0  0  0  0  0  0  0  0  0  0  0
   24.9885   -9.4023  -12.9828 H   0  0  0  0  0  0  0  0  0  0  0  0
   23.3510   -7.5360  -13.4040 H   0  0  0  0  0  0  0  0  0  0  0  0
   25.1035   -6.4957  -12.1003 H   0  0  0  0  0  0  0  0  0  0  0  0
   23.2510   -7.9000  -11.6050 H   0  0  0  0  0  0  0  0  0  0  0  0
   26.8630   -5.7160  -11.9270 H   0  0  0  0  0  0  0  0  0  0  0  0
   27.3462   -3.7876   -8.9832 H   0  0  0  0  0  0  0  0  0  0  0  0
   26.9504   -4.7578   -6.7155 H   0  0  0  0  0  0  0  0  0  0  0  0
  1  2  2  0
  2  3  1  0
  3  4  1  0
  4  5  2  0
  5  6  1  0
  6  7  2  0
  7  8  1  0
  7  9  1  0
  9 10  2  0
  3 11  2  0
 11 12  1  0
 12 13  1  0
 13 14  2  0
 14 15  1  0
 15 16  1  0
 16 17  1  0
 17 18  1  0
 18 19  1  0
 17 20  1  0
 20 21  1  0
 20 22  1  0
 22 23  1  0
 22 24  1  0
 24 25  1  0
 14 26  1  0
 26 27  1  0
 26 28  2  0
 28 29  1  0
 29 30  2  0
 30  2  1  0
 10  4  1  0
 30 13  1  0
 24 15  1  0
  5 31  1  0
  6 32  1  0
  8 33  1  0
  9 34  1  0
 10 35  1  0
 11 36  1  0
 15 37  1  1
 17 38  1  1
 18 39  1  0
 18 40  1  0
 19 41  1  0
 20 42  1  6
 21 43  1  0
 22 44  1  1
 23 45  1  0
 24 46  1  6
 25 47  1  0
 27 48  1  0
 28 49  1  0
 29 50  1  0
M  END
>  <meeko>  (19) 
{"is_sidechain": [false], "free_energy": -6.167, "intermolecular_energy": -7.921, "internal_energy": -1.164}

$$$$
