puerarin_run02
     RDKit          3D

 50 53  0  0  0  0  0  0  0  0999 V2000
   29.5510  -10.2190  -11.3960 O   0  0  0  0  0  0  0  0  0  0  0  0
   29.3870  -10.5080  -10.2180 C   0  0  0  0  0  0  0  0  0  0  0  0
   30.5030  -10.9680   -9.3460 C   0  0  0  0  0  0  0  0  0  0  0  0
   31.8680  -11.1570   -9.8620 C   0  0  0  0  0  0  0  0  0  0  0  0
   32.2600  -12.3960  -10.3740 C   0  0  0  0  0  0  0  0  0  0  0  0
   33.5540  -12.5740  -10.8630 C   0  0  0  0  0  0  0  0  0  0  0  0
   34.4600  -11.5130  -10.8420 C   0  0  0  0  0  0  0  0  0  0  0  0
   35.7220  -11.6880  -11.3190 O   0  0  0  0  0  0  0  0  0  0  0  0
   34.0710  -10.2750  -10.3320 C   0  0  0  0  0  0  0  0  0  0  0  0
   32.7770  -10.0960   -9.8430 C   0  0  0  0  0  0  0  0  0  0  0  0
   30.2120  -11.2280   -8.0620 C   0  0  0  0  0  0  0  0  0  0  0  0
   28.9860  -11.1100   -7.4550 O   0  0  0  0  0  0  0  0  0  0  0  0
   27.9290  -10.7070   -8.2290 C   0  0  0  0  0  0  0  0  0  0  0  0
   26.6830  -10.6080   -7.6070 C   0  0  0  0  0  0  0  0  0  0  0  0
   26.5320  -10.9390   -6.1360 C   0  0  2  0  0  0  0  0  0  0  0  0
   25.8390  -12.1890   -6.0400 O   0  0  0  0  0  0  0  0  0  0  0  0
   25.7170  -12.6530   -4.6960 C   0  0  2  0  0  0  0  0  0  0  0  0
   25.0690  -14.0330   -4.7450 C   0  0  0  0  0  0  0  0  0  0  0  0
   23.7080  -13.9040   -4.3750 O   0  0  0  0  0  0  0  0  0  0  0  0
   24.8870  -11.6660   -3.8730 C   0  0  1  0  0  0  0  0  0  0  0  0
   24.8400  -12.1040   -2.5190 O   0  0  0  0  0  0  0  0  0  0  0  0
   25.4960  -10.2650   -3.9300 C   0  0  2  0  0  0  0  0  0  0  0  0
   24.5670   -9.3550   -3.3390 O   0  0  0  0  0  0  0  0  0  0  0  0
   25.7780   -9.8380   -5.3730 C   0  0  1  0  0  0  0  0  0  0  0  0
   26.5840   -8.6590   -5.3600 O   0  0  0  0  0  0  0  0  0  0  0  0
   25.5710  -10.2020   -8.3430 C   0  0  0  0  0  0  0  0  0  0  0  0
   24.3460  -10.0990   -7.7570 O   0  0  0  0  0  0  0  0  0  0  0  0
   25.7030   -9.8940   -9.6980 C   0  0  0  0  0  0  0  0  0  0  0  0
   26.9470   -9.9920  -10.3220 C   0  0  0  0  0  0  0  0  0  0  0  0
   28.0610  -10.4000   -9.5820 C   0  0  0  0  0  0  0  0  0  0  0  0
   31.5466  -13.2331  -10.3916 H   0  0  0  0  0  0  0  0  0  0  0  0
   33.8604  -13.5509  -11.2653 H   0  0  0  0  0  0  0  0  0  0  0  0
   36.3450  -11.6780  -10.5720 H   0  0  0  0  0  0  0  0  0  0  0  0
   34.7853   -9.4386  -10.3153 H   0  0  0  0  0  0  0  0  0  0  0  0
   32.4717   -9.1183   -9.4419 H   0  0  0  0  0  0  0  0  0  0  0  0
   31.0433  -11.5719   -7.4290 H   0  0  0  0  0  0  0  0  0  0  0  0
   27.5271  -11.0096   -5.6725 H   0  0  0  0  0  0  0  0  0  0  0  0
   26.7009  -12.7262   -4.2096 H   0  0  0  0  0  0  0  0  0  0  0  0
   25.1393  -14.4399   -5.7645 H   0  0  0  0  0  0  0  0  0  0  0  0
   25.5843  -14.7160   -4.0537 H   0  0  0  0  0  0  0  0  0  0  0  0
   23.5270  -12.9580   -4.2430 H   0  0  0  0  0  0  0  0  0  0  0  0
   23.8713  -11.6254   -4.2933 H   0  0  0  0  0  0  0  0  0  0  0  0
   25.3290  -12.9420   -2.4560 H   0  0  0  0  0  0  0  0  0  0  0  0
   26.4523  -10.2644   -3.3864 H   0  0  0  0  0  0  0  0  0  0  0  0
   24.6220   -9.4710   -2.3750 H   0  0  0  0  0  0  0  0  0  0  0  0
   24.8174   -9.6508   -5.8752 H   0  0  0  0  0  0  0  0  0  0  0  0
   27.4450   -8.8900   -4.9730 H   0  0  0  0  0  0  0  0  0  0  0  0
   23.7110  -10.6480   -8.2450 H   0  0  0  0  0  0  0  0  0  0  0  0
   24.8236   -9.5730  -10.2756 H   0  0  0  0  0  0  0  0  0  0  0  0
   27.0508   -9.7497  -11.3899 H   0  0  0  0  0  0  0  0  0  0  0  0
  1  2  2  0
  2  3  1  0
  3  4  1  0
  4  5  2  0
  5  6  1  0
  6  7  2  0
  7  8  1  0
  7  9  1  0
  9 10  2  0
  3 11  2  0
 11 12  1  0
 12 13  1  0
 13 14  2  0
 14 15  1  0
 15 16  1  0
 16 17  1  0
 17 18  1  0
 18 19  1  0
 17 20  1  0
 20 21  1  0
 20 22  1  0
 22 23  1  0
 22 24  1  0
 24 25  1  0
 14 26  1  0
 26 27  1  0
 26 28  2  0
 28 29  1  0
 29 30  2  0
 30  2  1  0
 10  4  1  0
 30 13  1  0
 24 15  1  0
  5 31  1  0
  6 32  1  0
  8 33  1  0
  9 34  1  0
 10 35  1  0
 11 36  1  0
 15 37  1  1
 17 38  1  1
 18 39  1  0
 18 40  1  0
 19 41  1  0
 20 42  1  6
 21 43  1  0
 22 44  1  1
 23 45  1  0
 24 46  1  6
 25 47  1  0
 27 48  1  0
 28 49  1  0
 29 50  1  0
M  END
>  <meeko>  (1) 
{"is_sidechain": [false], "free_energy": -7.283, "intermolecular_energy": -9.838, "internal_energy": -0.757}

$$$$
puerarin_run02
     RDKit          3D

 50 53  0  0  0  0  0  0  0  0999 V2000
   30.8680   -8.6560   -9.2090 O   0  0  0  0  0  0  0  0  0  0  0  0
   30.1950   -9.3530   -8.4610 C   0  0  0  0  0  0  0  0  0  0  0  0
   30.3520  -10.8320   -8.3930 C   0  0  0  0  0  0  0  0  0  0  0  0
   31.2920  -11.5570   -9.2630 C   0  0  0  0  0  0  0  0  0  0  0  0
   30.8140  -12.3230  -10.3280 C   0  0  0  0  0  0  0  0  0  0  0  0
   31.7050  -13.0100  -11.1520 C   0  0  0  0  0  0  0  0  0  0  0  0
   33.0780  -12.9320  -10.9140 C   0  0  0  0  0  0  0  0  0  0  0  0
   33.9470  -13.6020  -11.7180 O   0  0  0  0  0  0  0  0  0  0  0  0
   33.5580  -12.1670   -9.8510 C   0  0  0  0  0  0  0  0  0  0  0  0
   32.6670  -11.4800   -9.0260 C   0  0  0  0  0  0  0  0  0  0  0  0
   29.5820  -11.4910   -7.5140 C   0  0  0  0  0  0  0  0  0  0  0  0
   28.6570  -10.9460   -6.6570 O   0  0  0  0  0  0  0  0  0  0  0  0
   28.4710   -9.5890   -6.7030 C   0  0  0  0  0  0  0  0  0  0  0  0
   27.5160   -9.0460   -5.8410 C   0  0  0  0  0  0  0  0  0  0  0  0
   26.7320   -9.9420   -4.9030 C   0  0  2  0  0  0  0  0  0  0  0  0
   25.4310   -9.3680   -4.7400 O   0  0  0  0  0  0  0  0  0  0  0  0
   24.5640  -10.1770   -3.9450 C   0  0  2  0  0  0  0  0  0  0  0  0
   23.1900   -9.5130   -3.9450 C   0  0  0  0  0  0  0  0  0  0  0  0
   23.3640   -8.1170   -4.1030 O   0  0  0  0  0  0  0  0  0  0  0  0
   25.1260  -10.3140   -2.5290 C   0  0  1  0  0  0  0  0  0  0  0  0
   24.2910  -11.1860   -1.7730 O   0  0  0  0  0  0  0  0  0  0  0  0
   26.5470  -10.8780   -2.5620 C   0  0  2  0  0  0  0  0  0  0  0  0
   27.0940  -10.7720   -1.2460 O   0  0  0  0  0  0  0  0  0  0  0  0
   27.4300  -10.1050   -3.5440 C   0  0  1  0  0  0  0  0  0  0  0  0
   28.6470  -10.8260   -3.7400 O   0  0  0  0  0  0  0  0  0  0  0  0
   27.2830   -7.6720   -5.8420 C   0  0  0  0  0  0  0  0  0  0  0  0
   26.3560   -7.1210   -5.0090 O   0  0  0  0  0  0  0  0  0  0  0  0
   28.0020   -6.8400   -6.7010 C   0  0  0  0  0  0  0  0  0  0  0  0
   28.9570   -7.3800   -7.5640 C   0  0  0  0  0  0  0  0  0  0  0  0
   29.1890   -8.7590   -7.5610 C   0  0  0  0  0  0  0  0  0  0  0  0
   29.7322  -12.3847  -10.5175 H   0  0  0  0  0  0  0  0  0  0  0  0
   31.3256  -13.6135  -11.9897 H   0  0  0  0  0  0  0  0  0  0  0  0
   33.4630  -14.3020  -12.1900 H   0  0  0  0  0  0  0  0  0  0  0  0
   34.6401  -12.1053   -9.6630 H   0  0  0  0  0  0  0  0  0  0  0  0
   33.0472  -10.8771   -8.1882 H   0  0  0  0  0  0  0  0  0  0  0  0
   29.7043  -12.5835   -7.4754 H   0  0  0  0  0  0  0  0  0  0  0  0
   26.6607  -10.9510   -5.3352 H   0  0  0  0  0  0  0  0  0  0  0  0
   24.4811  -11.1939   -4.3562 H   0  0  0  0  0  0  0  0  0  0  0  0
   22.5874   -9.9079   -4.7762 H   0  0  0  0  0  0  0  0  0  0  0  0
   22.6709   -9.7226   -2.9981 H   0  0  0  0  0  0  0  0  0  0  0  0
   22.9670   -7.8650   -4.9540 H   0  0  0  0  0  0  0  0  0  0  0  0
   25.1532   -9.3178   -2.0634 H   0  0  0  0  0  0  0  0  0  0  0  0
   24.8630  -11.7390   -1.2130 H   0  0  0  0  0  0  0  0  0  0  0  0
   26.5132  -11.9260   -2.8944 H   0  0  0  0  0  0  0  0  0  0  0  0
   27.3340   -9.8400   -1.1070 H   0  0  0  0  0  0  0  0  0  0  0  0
   27.6277   -9.1075   -3.1246 H   0  0  0  0  0  0  0  0  0  0  0  0
   28.4210  -11.7080   -4.0810 H   0  0  0  0  0  0  0  0  0  0  0  0
   26.7820   -6.4380   -4.4640 H   0  0  0  0  0  0  0  0  0  0  0  0
   27.8158   -5.7559   -6.6981 H   0  0  0  0  0  0  0  0  0  0  0  0
   29.5235   -6.7249   -8.2422 H   0  0  0  0  0  0  0  0  0  0  0  0
  1  2  2  0
  2  3  1  0
  3  4  1  0
  4  5  2  0
  5  6  1  0
  6  7  2  0
  7  8  1  0
  7  9  1  0
  9 10  2  0
  3 11  2  0
 11 12  1  0
 12 13  1  0
 13 14  2  0
 14 15  1  0
 15 16  1  0
 16 17  1  0
 17 18  1  0
 18 19  1  0
 17 20  1  0
 20 21  1  0
 20 22  1  0
 22 23  1  0
 22 24  1  0
 24 25  1  0
 14 26  1  0
 26 27  1  0
 26 28  2  0
 28 29  1  0
 29 30  2  0
 30  2  1  0
 10  4  1  0
 30 13  1  0
 24 15  1  0
  5 31  1  0
  6 32  1  0
  8 33  1  0
  9 34  1  0
 10 35  1  0
 11 36  1  0
 15 37  1  6
 17 38  1  6
 18 39  1  0
 18 40  1  0
 19 41  1  0
 20 42  1  1
 21 43  1  0
 22 44  1  6
 23 45  1  0
 24 46  1  1
 25 47  1  0
 27 48  1  0
 28 49  1  0
 29 50  1  0
M  END
>  <meeko>  (2) 
{"is_sidechain": [false], "free_energy": -7.271, "intermolecular_energy": -9.695, "internal_energy": -0.884}

$$$$
puerarin_run02
     RDKit          3D

 50 53  0  0  0  0  0  0  0  0999 V2000
   29.4510   -9.2800  -11.2380 O   0  0  0  0  0  0  0  0  0  0  0  0
   29.3060   -9.5680  -10.0570 C   0  0  0  0  0  0  0  0  0  0  0  0
   30.4410   -9.5780   -9.0940 C   0  0  0  0  0  0  0  0  0  0  0  0
   31.8220   -9.2940   -9.5130 C   0  0  0  0  0  0  0  0  0  0  0  0
   32.6520  -10.3320   -9.9440 C   0  0  0  0  0  0  0  0  0  0  0  0
   33.9610  -10.0620  -10.3420 C   0  0  0  0  0  0  0  0  0  0  0  0
   34.4450   -8.7540  -10.3100 C   0  0  0  0  0  0  0  0  0  0  0  0
   35.7220   -8.4910  -10.6970 O   0  0  0  0  0  0  0  0  0  0  0  0
   33.6180   -7.7160   -9.8810 C   0  0  0  0  0  0  0  0  0  0  0  0
   32.3080   -7.9850   -9.4830 C   0  0  0  0  0  0  0  0  0  0  0  0
   30.1590   -9.8790   -7.8170 C   0  0  0  0  0  0  0  0  0  0  0  0
   28.9240  -10.1790   -7.2930 O   0  0  0  0  0  0  0  0  0  0  0  0
   27.8570  -10.1970   -8.1530 C   0  0  0  0  0  0  0  0  0  0  0  0
   26.6100  -10.5200   -7.6150 C   0  0  0  0  0  0  0  0  0  0  0  0
   26.4690  -10.8330   -6.1390 C   0  0  2  0  0  0  0  0  0  0  0  0
   25.8230  -12.1060   -6.0240 O   0  0  0  0  0  0  0  0  0  0  0  0
   25.7170  -12.5530   -4.6730 C   0  0  2  0  0  0  0  0  0  0  0  0
   25.1200  -13.9570   -4.7000 C   0  0  0  0  0  0  0  0  0  0  0  0
   23.7370  -13.8640   -4.4120 O   0  0  0  0  0  0  0  0  0  0  0  0
   24.8480  -11.5850   -3.8670 C   0  0  1  0  0  0  0  0  0  0  0  0
   24.8160  -12.0020   -2.5050 O   0  0  0  0  0  0  0  0  0  0  0  0
   25.4050  -10.1620   -3.9460 C   0  0  2  0  0  0  0  0  0  0  0  0
   24.4410   -9.2800   -3.3700 O   0  0  0  0  0  0  0  0  0  0  0  0
   25.6730   -9.7490   -5.3950 C   0  0  1  0  0  0  0  0  0  0  0  0
   26.4340   -8.5400   -5.4000 O   0  0  0  0  0  0  0  0  0  0  0  0
   25.4870  -10.5540   -8.4410 C   0  0  0  0  0  0  0  0  0  0  0  0
   24.2610  -10.8660   -7.9370 O   0  0  0  0  0  0  0  0  0  0  0  0
   25.6090  -10.2660   -9.8010 C   0  0  0  0  0  0  0  0  0  0  0  0
   26.8550   -9.9430  -10.3410 C   0  0  0  0  0  0  0  0  0  0  0  0
   27.9790   -9.9100   -9.5110 C   0  0  0  0  0  0  0  0  0  0  0  0
   32.2723  -11.3641   -9.9694 H   0  0  0  0  0  0  0  0  0  0  0  0
   34.6123  -10.8809  -10.6814 H   0  0  0  0  0  0  0  0  0  0  0  0
   35.8840   -8.9140  -11.5580 H   0  0  0  0  0  0  0  0  0  0  0  0
   33.9989   -6.6843   -9.8564 H   0  0  0  0  0  0  0  0  0  0  0  0
   31.6572   -7.1650   -9.1452 H   0  0  0  0  0  0  0  0  0  0  0  0
   31.0059   -9.8865   -7.1151 H   0  0  0  0  0  0  0  0  0  0  0  0
   27.4651  -10.8591   -5.6732 H   0  0  0  0  0  0  0  0  0  0  0  0
   26.7026  -12.5816   -4.1854 H   0  0  0  0  0  0  0  0  0  0  0  0
   25.2623  -14.4013   -5.6961 H   0  0  0  0  0  0  0  0  0  0  0  0
   25.6181  -14.5922   -3.9528 H   0  0  0  0  0  0  0  0  0  0  0  0
   23.3420  -14.7360   -4.5830 H   0  0  0  0  0  0  0  0  0  0  0  0
   23.8321  -11.5903   -4.2888 H   0  0  0  0  0  0  0  0  0  0  0  0
   24.9670  -11.2200   -1.9470 H   0  0  0  0  0  0  0  0  0  0  0  0
   26.3601  -10.1151   -3.4023 H   0  0  0  0  0  0  0  0  0  0  0  0
   23.8720   -8.9610   -4.0920 H   0  0  0  0  0  0  0  0  0  0  0  0
   24.7071   -9.6068   -5.9017 H   0  0  0  0  0  0  0  0  0  0  0  0
   26.8690   -8.4580   -4.5350 H   0  0  0  0  0  0  0  0  0  0  0  0
   23.6230  -10.1820   -8.2020 H   0  0  0  0  0  0  0  0  0  0  0  0
   24.7208  -10.2936  -10.4493 H   0  0  0  0  0  0  0  0  0  0  0  0
   26.9516   -9.7159  -11.4130 H   0  0  0  0  0  0  0  0  0  0  0  0
  1  2  2  0
  2  3  1  0
  3  4  1  0
  4  5  2  0
  5  6  1  0
  6  7  2  0
  7  8  1  0
  7  9  1  0
  9 10  2  0
  3 11  2  0
 11 12  1  0
 12 13  1  0
 13 14  2  0
 14 15  1  0
 15 16  1  0
 16 17  1  0
 17 18  1  0
 18 19  1  0
 17 20  1  0
 20 21  1  0
 20 22  1  0
 22 23  1  0
 22 24  1  0
 24 25  1  0
 14 26  1  0
 26 27  1  0
 26 28  2  0
 28 29  1  0
 29 30  2  0
 30  2  1  0
 10  4  1  0
 30 13  1  0
 24 15  1  0
  5 31  1  0
  6 32  1  0
  8 33  1  0
  9 34  1  0
 10 35  1  0
 11 36  1  0
 15 37  1  1
 17 38  1  1
 18 39  1  0
 18 40  1  0
 19 41  1  0
 20 42  1  6
 21 43  1  0
 22 44  1  1
 23 45  1  0
 24 46  1  6
 25 47  1  0
 27 48  1  0
 28 49  1  0
 29 50  1  0
M  END
>  <meeko>  (3) 
{"is_sidechain": [false], "free_energy": -7.135, "intermolecular_energy": -9.275, "internal_energy": -1.12}

$$$$
puerarin_run02
     RDKit          3D

 50 53  0  0  0  0  0  0  0  0999 V2000
   29.5390   -7.8520   -9.9870 O   0  0  0  0  0  0  0  0  0  0  0  0
   29.0010   -8.6270   -9.2070 C   0  0  0  0  0  0  0  0  0  0  0  0
   29.2040  -10.1000   -9.2790 C   0  0  0  0  0  0  0  0  0  0  0  0
   30.0250  -10.7230  -10.3290 C   0  0  0  0  0  0  0  0  0  0  0  0
   31.4090  -10.8210  -10.1730 C   0  0  0  0  0  0  0  0  0  0  0  0
   32.1860  -11.4120  -11.1690 C   0  0  0  0  0  0  0  0  0  0  0  0
   31.5810  -11.9070  -12.3250 C   0  0  0  0  0  0  0  0  0  0  0  0
   32.3400  -12.4820  -13.2970 O   0  0  0  0  0  0  0  0  0  0  0  0
   30.1990  -11.8110  -12.4830 C   0  0  0  0  0  0  0  0  0  0  0  0
   29.4210  -11.2200  -11.4870 C   0  0  0  0  0  0  0  0  0  0  0  0
   28.5890  -10.8510   -8.3520 C   0  0  0  0  0  0  0  0  0  0  0  0
   27.7860  -10.4050   -7.3300 O   0  0  0  0  0  0  0  0  0  0  0  0
   27.5600   -9.0560   -7.2420 C   0  0  0  0  0  0  0  0  0  0  0  0
   26.7280   -8.6150   -6.2110 C   0  0  0  0  0  0  0  0  0  0  0  0
   26.1130   -9.6060   -5.2440 C   0  0  2  0  0  0  0  0  0  0  0  0
   24.8070   -9.1280   -4.9040 O   0  0  0  0  0  0  0  0  0  0  0  0
   24.0880  -10.0320   -4.0640 C   0  0  2  0  0  0  0  0  0  0  0  0
   22.6850   -9.4620   -3.8730 C   0  0  0  0  0  0  0  0  0  0  0  0
   22.7600   -8.0500   -3.9400 O   0  0  0  0  0  0  0  0  0  0  0  0
   24.8170  -10.2000   -2.7300 C   0  0  1  0  0  0  0  0  0  0  0  0
   24.1300  -11.1620   -1.9350 O   0  0  0  0  0  0  0  0  0  0  0  0
   26.2570  -10.6650   -2.9530 C   0  0  2  0  0  0  0  0  0  0  0  0
   26.9440  -10.5880   -1.7030 O   0  0  0  0  0  0  0  0  0  0  0  0
   26.9720   -9.7880   -3.9830 C   0  0  1  0  0  0  0  0  0  0  0  0
   28.2000  -10.4150   -4.3550 O   0  0  0  0  0  0  0  0  0  0  0  0
   26.4620   -7.2530   -6.0710 C   0  0  0  0  0  0  0  0  0  0  0  0
   25.6530   -6.8010   -5.0730 O   0  0  0  0  0  0  0  0  0  0  0  0
   27.0250   -6.3340   -6.9570 C   0  0  0  0  0  0  0  0  0  0  0  0
   27.8570   -6.7730   -7.9880 C   0  0  0  0  0  0  0  0  0  0  0  0
   28.1220   -8.1390   -8.1270 C   0  0  0  0  0  0  0  0  0  0  0  0
   31.8876  -10.4312   -9.2625 H   0  0  0  0  0  0  0  0  0  0  0  0
   33.2762  -11.4880  -11.0433 H   0  0  0  0  0  0  0  0  0  0  0  0
   32.8730  -13.1930  -12.9000 H   0  0  0  0  0  0  0  0  0  0  0  0
   29.7216  -12.2016  -13.3938 H   0  0  0  0  0  0  0  0  0  0  0  0
   28.3309  -11.1452  -11.6134 H   0  0  0  0  0  0  0  0  0  0  0  0
   28.7441  -11.9380   -8.4173 H   0  0  0  0  0  0  0  0  0  0  0  0
   26.0530  -10.5951   -5.7216 H   0  0  0  0  0  0  0  0  0  0  0  0
   24.0202  -11.0308   -4.5199 H   0  0  0  0  0  0  0  0  0  0  0  0
   22.0214   -9.8362   -4.6665 H   0  0  0  0  0  0  0  0  0  0  0  0
   22.2823   -9.7718   -2.8974 H   0  0  0  0  0  0  0  0  0  0  0  0
   22.4650   -7.7820   -4.8270 H   0  0  0  0  0  0  0  0  0  0  0  0
   24.8365   -9.2278   -2.2157 H   0  0  0  0  0  0  0  0  0  0  0  0
   23.1940  -10.9010   -1.8890 H   0  0  0  0  0  0  0  0  0  0  0  0
   26.2495  -11.6955   -3.3378 H   0  0  0  0  0  0  0  0  0  0  0  0
   27.8870  -10.4550   -1.9000 H   0  0  0  0  0  0  0  0  0  0  0  0
   27.1557   -8.8014   -3.5326 H   0  0  0  0  0  0  0  0  0  0  0  0
   28.9260   -9.8120   -4.1210 H   0  0  0  0  0  0  0  0  0  0  0  0
   26.1980   -6.5660   -4.3020 H   0  0  0  0  0  0  0  0  0  0  0  0
   26.8126   -5.2608   -6.8427 H   0  0  0  0  0  0  0  0  0  0  0  0
   28.3015   -6.0491   -8.6868 H   0  0  0  0  0  0  0  0  0  0  0  0
  1  2  2  0
  2  3  1  0
  3  4  1  0
  4  5  2  0
  5  6  1  0
  6  7  2  0
  7  8  1  0
  7  9  1  0
  9 10  2  0
  3 11  2  0
 11 12  1  0
 12 13  1  0
 13 14  2  0
 14 15  1  0
 15 16  1  0
 16 17  1  0
 17 18  1  0
 18 19  1  0
 17 20  1  0
 20 21  1  0
 20 22  1  0
 22 23  1  0
 22 24  1  0
 24 25  1  0
 14 26  1  0
 26 27  1  0
 26 28  2  0
 28 29  1  0
 29 30  2  0
 30  2  1  0
 10  4  1  0
 30 13  1  0
 24 15  1  0
  5 31  1  0
  6 32  1  0
  8 33  1  0
  9 34  1  0
 10 35  1  0
 11 36  1  0
 15 37  1  6
 17 38  1  6
 18 39  1  0
 18 40  1  0
 19 41  1  0
 20 42  1  1
 21 43  1  0
 22 44  1  6
 23 45  1  0
 24 46  1  1
 25 47  1  0
 27 48  1  0
 28 49  1  0
 29 50  1  0
M  END
>  <meeko>  (4) 
{"is_sidechain": [false], "free_energy": -7.066, "intermolecular_energy": -9.336, "internal_energy": -0.966}

$$$$
puerarin_run02
     RDKit          3D

 50 53  0  0  0  0  0  0  0  0999 V2000
   27.9560   -9.0550  -11.4400 O   0  0  0  0  0  0  0  0  0  0  0  0
   27.4380   -9.3100  -10.3610 C   0  0  0  0  0  0  0  0  0  0  0  0
   26.0250   -8.9570  -10.0500 C   0  0  0  0  0  0  0  0  0  0  0  0
   25.1760   -8.2290  -11.0060 C   0  0  0  0  0  0  0  0  0  0  0  0
   24.5790   -8.9060  -12.0720 C   0  0  0  0  0  0  0  0  0  0  0  0
   23.7740   -8.2160  -12.9780 C   0  0  0  0  0  0  0  0  0  0  0  0
   23.5620   -6.8460  -12.8200 C   0  0  0  0  0  0  0  0  0  0  0  0
   22.7770   -6.1730  -13.7050 O   0  0  0  0  0  0  0  0  0  0  0  0
   24.1570   -6.1670  -11.7560 C   0  0  0  0  0  0  0  0  0  0  0  0
   24.9620   -6.8570  -10.8510 C   0  0  0  0  0  0  0  0  0  0  0  0
   25.5540   -9.3130   -8.8460 C   0  0  0  0  0  0  0  0  0  0  0  0
   26.2370   -9.9780   -7.8560 O   0  0  0  0  0  0  0  0  0  0  0  0
   27.5470  -10.3030   -8.0980 C   0  0  0  0  0  0  0  0  0  0  0  0
   28.2380  -10.9630   -7.0800 C   0  0  0  0  0  0  0  0  0  0  0  0
   27.5470  -11.2930   -5.7720 C   0  0  2  0  0  0  0  0  0  0  0  0
   26.6520  -12.3840   -6.0160 O   0  0  0  0  0  0  0  0  0  0  0  0
   26.0070  -12.8470   -4.8300 C   0  0  2  0  0  0  0  0  0  0  0  0
   25.1780  -14.0720   -5.2080 C   0  0  0  0  0  0  0  0  0  0  0  0
   25.2370  -15.0010   -4.1410 O   0  0  0  0  0  0  0  0  0  0  0  0
   25.1380  -11.7360   -4.2380 C   0  0  1  0  0  0  0  0  0  0  0  0
   24.5640  -12.1890   -3.0150 O   0  0  0  0  0  0  0  0  0  0  0  0
   25.9690  -10.4810   -3.9710 C   0  0  2  0  0  0  0  0  0  0  0  0
   25.0730   -9.4210   -3.6350 O   0  0  0  0  0  0  0  0  0  0  0  0
   26.7890  -10.0850   -5.2010 C   0  0  1  0  0  0  0  0  0  0  0  0
   27.7390   -9.0870   -4.8240 O   0  0  0  0  0  0  0  0  0  0  0  0
   29.5730  -11.3200   -7.2670 C   0  0  0  0  0  0  0  0  0  0  0  0
   30.2660  -11.9640   -6.2880 O   0  0  0  0  0  0  0  0  0  0  0  0
   30.2160  -11.0210   -8.4690 C   0  0  0  0  0  0  0  0  0  0  0  0
   29.5260  -10.3620   -9.4880 C   0  0  0  0  0  0  0  0  0  0  0  0
   28.1890  -10.0040   -9.2980 C   0  0  0  0  0  0  0  0  0  0  0  0
   24.7442   -9.9863  -12.1972 H   0  0  0  0  0  0  0  0  0  0  0  0
   23.3062   -8.7518  -13.8171 H   0  0  0  0  0  0  0  0  0  0  0  0
   23.2920   -5.4430  -14.0910 H   0  0  0  0  0  0  0  0  0  0  0  0
   23.9907   -5.0868  -11.6313 H   0  0  0  0  0  0  0  0  0  0  0  0
   25.4299   -6.3200  -10.0127 H   0  0  0  0  0  0  0  0  0  0  0  0
   24.5100   -9.0442   -8.6275 H   0  0  0  0  0  0  0  0  0  0  0  0
   28.3005  -11.5685   -5.0194 H   0  0  0  0  0  0  0  0  0  0  0  0
   26.7415  -13.1237   -4.0594 H   0  0  0  0  0  0  0  0  0  0  0  0
   24.1338  -13.7738   -5.3830 H   0  0  0  0  0  0  0  0  0  0  0  0
   25.5759  -14.5275   -6.1268 H   0  0  0  0  0  0  0  0  0  0  0  0
   25.1200  -15.8900   -4.5180 H   0  0  0  0  0  0  0  0  0  0  0  0
   24.3461  -11.4866   -4.9596 H   0  0  0  0  0  0  0  0  0  0  0  0
   25.2420  -12.6910   -2.5320 H   0  0  0  0  0  0  0  0  0  0  0  0
   26.6719  -10.6803   -3.1487 H   0  0  0  0  0  0  0  0  0  0  0  0
   24.2050   -9.6460   -4.0140 H   0  0  0  0  0  0  0  0  0  0  0  0
   26.1013   -9.7023   -5.9696 H   0  0  0  0  0  0  0  0  0  0  0  0
   27.2610   -8.2500   -4.7020 H   0  0  0  0  0  0  0  0  0  0  0  0
   30.9040  -12.5740   -6.6960 H   0  0  0  0  0  0  0  0  0  0  0  0
   31.2687  -11.3052   -8.6138 H   0  0  0  0  0  0  0  0  0  0  0  0
   30.0323  -10.1258  -10.4356 H   0  0  0  0  0  0  0  0  0  0  0  0
  1  2  2  0
  2  3  1  0
  3  4  1  0
  4  5  2  0
  5  6  1  0
  6  7  2  0
  7  8  1  0
  7  9  1  0
  9 10  2  0
  3 11  2  0
 11 12  1  0
 12 13  1  0
 13 14  2  0
 14 15  1  0
 15 16  1  0
 16 17  1  0
 17 18  1  0
 18 19  1  0
 17 20  1  0
 20 21  1  0
 20 22  1  0
 22 23  1  0
 22 24  1  0
 24 25  1  0
 14 26  1  0
 26 27  1  0
 26 28  2  0
 28 29  1  0
 29 30  2  0
 30  2  1  0
 10  4  1  0
 30 13  1  0
 24 15  1  0
  5 31  1  0
  6 32  1  0
  8 33  1  0
  9 34  1  0
 10 35  1  0
 11 36  1  0
 15 37  1  1
 17 38  1  1
 18 39  1  0
 18 40  1  0
 19 41  1  0
 20 42  1  6
 21 43  1  0
 22 44  1  1
 23 45  1  0
 24 46  1  6
 25 47  1  0
 27 48  1  0
 28 49  1  0
 29 50  1  0
M  END
>  <meeko>  (5) 
{"is_sidechain": [false], "free_energy": -7.031, "intermolecular_energy": -9.851, "internal_energy": -0.404}

$$$$
puerarin_run02
     RDKit          3D

 50 53  0  0  0  0  0  0  0  0999 V2000
   28.4330   -9.1970  -11.7010 O   0  0  0  0  0  0  0  0  0  0  0  0
   27.6730   -9.2510  -10.7420 C   0  0  0  0  0  0  0  0  0  0  0  0
   26.2890   -8.7040  -10.7890 C   0  0  0  0  0  0  0  0  0  0  0  0
   25.7640   -8.0140  -11.9780 C   0  0  0  0  0  0  0  0  0  0  0  0
   26.2700   -6.7650  -12.3450 C   0  0  0  0  0  0  0  0  0  0  0  0
   25.7720   -6.1110  -13.4720 C   0  0  0  0  0  0  0  0  0  0  0  0
   24.7660   -6.7050  -14.2360 C   0  0  0  0  0  0  0  0  0  0  0  0
   24.2800   -6.0670  -15.3340 O   0  0  0  0  0  0  0  0  0  0  0  0
   24.2600   -7.9530  -13.8710 C   0  0  0  0  0  0  0  0  0  0  0  0
   24.7580   -8.6060  -12.7440 C   0  0  0  0  0  0  0  0  0  0  0  0
   25.5350   -8.8460   -9.6890 C   0  0  0  0  0  0  0  0  0  0  0  0
   25.9010   -9.4520   -8.5110 O   0  0  0  0  0  0  0  0  0  0  0  0
   27.1750   -9.9510   -8.4220 C   0  0  0  0  0  0  0  0  0  0  0  0
   27.5430  -10.5490   -7.2150 C   0  0  0  0  0  0  0  0  0  0  0  0
   26.5580  -10.6270   -6.0660 C   0  0  2  0  0  0  0  0  0  0  0  0
   27.3010  -10.5090   -4.8480 O   0  0  0  0  0  0  0  0  0  0  0  0
   26.4660  -10.4770   -3.6910 C   0  0  2  0  0  0  0  0  0  0  0  0
   27.3660  -10.2360   -2.4830 C   0  0  0  0  0  0  0  0  0  0  0  0
   28.6260   -9.7830   -2.9430 O   0  0  0  0  0  0  0  0  0  0  0  0
   25.6920  -11.7910   -3.5670 C   0  0  1  0  0  0  0  0  0  0  0  0
   24.8070  -11.7130   -2.4530 O   0  0  0  0  0  0  0  0  0  0  0  0
   24.8830  -12.0670   -4.8350 C   0  0  2  0  0  0  0  0  0  0  0  0
   24.3690  -13.3960   -4.7500 O   0  0  0  0  0  0  0  0  0  0  0  0
   25.7530  -11.9360   -6.0880 C   0  0  1  0  0  0  0  0  0  0  0  0
   24.9090  -11.9320   -7.2400 O   0  0  0  0  0  0  0  0  0  0  0  0
   28.8250  -11.0750   -7.0660 C   0  0  0  0  0  0  0  0  0  0  0  0
   29.2060  -11.6620   -5.8980 O   0  0  0  0  0  0  0  0  0  0  0  0
   29.7380  -11.0080   -8.1200 C   0  0  0  0  0  0  0  0  0  0  0  0
   29.3710  -10.4110   -9.3280 C   0  0  0  0  0  0  0  0  0  0  0  0
   28.0850   -9.8830   -9.4750 C   0  0  0  0  0  0  0  0  0  0  0  0
   27.0630   -6.2960  -11.7440 H   0  0  0  0  0  0  0  0  0  0  0  0
   26.1720   -5.1272  -13.7587 H   0  0  0  0  0  0  0  0  0  0  0  0
   24.7820   -6.3570  -16.1150 H   0  0  0  0  0  0  0  0  0  0  0  0
   23.4676   -8.4222  -14.4727 H   0  0  0  0  0  0  0  0  0  0  0  0
   24.3574   -9.5897  -12.4579 H   0  0  0  0  0  0  0  0  0  0  0  0
   24.5161   -8.4340   -9.7344 H   0  0  0  0  0  0  0  0  0  0  0  0
   25.8251   -9.8116   -6.1549 H   0  0  0  0  0  0  0  0  0  0  0  0
   25.7205   -9.6712   -3.7603 H   0  0  0  0  0  0  0  0  0  0  0  0
   26.9141   -9.4748   -1.8300 H   0  0  0  0  0  0  0  0  0  0  0  0
   27.4869  -11.1683   -1.9119 H   0  0  0  0  0  0  0  0  0  0  0  0
   28.4700   -9.0230   -3.5280 H   0  0  0  0  0  0  0  0  0  0  0  0
   26.4120  -12.6102   -3.4235 H   0  0  0  0  0  0  0  0  0  0  0  0
   24.5010  -12.6130   -2.2480 H   0  0  0  0  0  0  0  0  0  0  0  0
   24.0682  -11.3321   -4.9127 H   0  0  0  0  0  0  0  0  0  0  0  0
   24.8820  -13.8620   -4.0660 H   0  0  0  0  0  0  0  0  0  0  0  0
   26.4535  -12.7837   -6.1167 H   0  0  0  0  0  0  0  0  0  0  0  0
   25.3950  -12.3540   -7.9680 H   0  0  0  0  0  0  0  0  0  0  0  0
   30.1260  -11.4170   -5.7020 H   0  0  0  0  0  0  0  0  0  0  0  0
   30.7482  -11.4262   -7.9988 H   0  0  0  0  0  0  0  0  0  0  0  0
   30.0897  -10.3566  -10.1590 H   0  0  0  0  0  0  0  0  0  0  0  0
  1  2  2  0
  2  3  1  0
  3  4  1  0
  4  5  2  0
  5  6  1  0
  6  7  2  0
  7  8  1  0
  7  9  1  0
  9 10  2  0
  3 11  2  0
 11 12  1  0
 12 13  1  0
 13 14  2  0
 14 15  1  0
 15 16  1  0
 16 17  1  0
 17 18  1  0
 18 19  1  0
 17 20  1  0
 20 21  1  0
 20 22  1  0
 22 23  1  0
 22 24  1  0
 24 25  1  0
 14 26  1  0
 26 27  1  0
 26 28  2  0
 28 29  1  0
 29 30  2  0
 30  2  1  0
 10  4  1  0
 30 13  1  0
 24 15  1  0
  5 31  1  0
  6 32  1  0
  8 33  1  0
  9 34  1  0
 10 35  1  0
 11 36  1  0
 15 37  1  6
 17 38  1  6
 18 39  1  0
 18 40  1  0
 19 41  1  0
 20 42  1  1
 21 43  1  0
 22 44  1  6
 23 45  1  0
 24 46  1  6
 25 47  1  0
 27 48  1  0
 28 49  1  0
 29 50  1  0
M  END
>  <meeko>  (6) 
{"is_sidechain": [false], "free_energy": -6.998, "intermolecular_energy": -9.407, "internal_energy": -0.803}

$$$$
puerarin_run02
     RDKit          3D

 50 53  0  0  0  0  0  0  0  0999 V2000
   30.5650   -9.7600  -10.5370 O   0  0  0  0  0  0  0  0  0  0  0  0
   30.2420  -10.3370   -9.5070 C   0  0  0  0  0  0  0  0  0  0  0  0
   31.0110  -11.4900   -8.9630 C   0  0  0  0  0  0  0  0  0  0  0  0
   32.1830  -12.0430   -9.6610 C   0  0  0  0  0  0  0  0  0  0  0  0
   32.0170  -13.0200  -10.6450 C   0  0  0  0  0  0  0  0  0  0  0  0
   33.1280  -13.5440  -11.3060 C   0  0  0  0  0  0  0  0  0  0  0  0
   34.4080  -13.0920  -10.9850 C   0  0  0  0  0  0  0  0  0  0  0  0
   35.4920  -13.6050  -11.6300 O   0  0  0  0  0  0  0  0  0  0  0  0
   34.5770  -12.1170  -10.0030 C   0  0  0  0  0  0  0  0  0  0  0  0
   33.4660  -11.5930   -9.3410 C   0  0  0  0  0  0  0  0  0  0  0  0
   30.5820  -12.0260   -7.8110 C   0  0  0  0  0  0  0  0  0  0  0  0
   29.5010  -11.6220   -7.0660 O   0  0  0  0  0  0  0  0  0  0  0  0
   28.7550  -10.5750   -7.5440 C   0  0  0  0  0  0  0  0  0  0  0  0
   27.6480  -10.1840   -6.7890 C   0  0  0  0  0  0  0  0  0  0  0  0
   27.3050  -10.9030   -5.4990 C   0  0  2  0  0  0  0  0  0  0  0  0
   25.9440  -11.3370   -5.5930 O   0  0  0  0  0  0  0  0  0  0  0  0
   25.5320  -12.1120   -4.4670 C   0  0  2  0  0  0  0  0  0  0  0  0
   24.1140  -12.6030   -4.7430 C   0  0  0  0  0  0  0  0  0  0  0  0
   24.0470  -13.9840   -4.4340 O   0  0  0  0  0  0  0  0  0  0  0  0
   25.6000  -11.2660   -3.1940 C   0  0  1  0  0  0  0  0  0  0  0  0
   25.2610  -12.0750   -2.0720 O   0  0  0  0  0  0  0  0  0  0  0  0
   27.0050  -10.6930   -2.9980 C   0  0  2  0  0  0  0  0  0  0  0  0
   26.9490   -9.7440   -1.9330 O   0  0  0  0  0  0  0  0  0  0  0  0
   27.5080  -10.0050   -4.2690 C   0  0  1  0  0  0  0  0  0  0  0  0
   28.9020   -9.7320   -4.1280 O   0  0  0  0  0  0  0  0  0  0  0  0
   26.8530   -9.1250   -7.2240 C   0  0  0  0  0  0  0  0  0  0  0  0
   25.7680   -8.7260   -6.5040 O   0  0  0  0  0  0  0  0  0  0  0  0
   27.1620   -8.4570   -8.4100 C   0  0  0  0  0  0  0  0  0  0  0  0
   28.2690   -8.8470   -9.1650 C   0  0  0  0  0  0  0  0  0  0  0  0
   29.0650   -9.9090   -8.7280 C   0  0  0  0  0  0  0  0  0  0  0  0
   31.0081  -13.3770  -10.8993 H   0  0  0  0  0  0  0  0  0  0  0  0
   32.9947  -14.3137  -12.0804 H   0  0  0  0  0  0  0  0  0  0  0  0
   36.1770  -13.8170  -10.9730 H   0  0  0  0  0  0  0  0  0  0  0  0
   35.5864  -11.7607   -9.7499 H   0  0  0  0  0  0  0  0  0  0  0  0
   33.6008  -10.8243   -8.5658 H   0  0  0  0  0  0  0  0  0  0  0  0
   31.1565  -12.8794   -7.4215 H   0  0  0  0  0  0  0  0  0  0  0  0
   27.9788  -11.7624   -5.3671 H   0  0  0  0  0  0  0  0  0  0  0  0
   26.1968  -12.9749   -4.3136 H   0  0  0  0  0  0  0  0  0  0  0  0
   23.4007  -12.0477   -4.1162 H   0  0  0  0  0  0  0  0  0  0  0  0
   23.8589  -12.4412   -5.8007 H   0  0  0  0  0  0  0  0  0  0  0  0
   24.3190  -14.4760   -5.2270 H   0  0  0  0  0  0  0  0  0  0  0  0
   24.8893  -10.4317   -3.2878 H   0  0  0  0  0  0  0  0  0  0  0  0
   24.4220  -12.5260   -2.2680 H   0  0  0  0  0  0  0  0  0  0  0  0
   27.7009  -11.5117   -2.7627 H   0  0  0  0  0  0  0  0  0  0  0  0
   27.2350   -8.8870   -2.2940 H   0  0  0  0  0  0  0  0  0  0  0  0
   26.9387   -9.0746   -4.4111 H   0  0  0  0  0  0  0  0  0  0  0  0
   29.0670   -9.4870   -3.2020 H   0  0  0  0  0  0  0  0  0  0  0  0
   25.3440   -7.9760   -6.9530 H   0  0  0  0  0  0  0  0  0  0  0  0
   26.5320   -7.6219   -8.7501 H   0  0  0  0  0  0  0  0  0  0  0  0
   28.5137   -8.3209  -10.0995 H   0  0  0  0  0  0  0  0  0  0  0  0
  1  2  2  0
  2  3  1  0
  3  4  1  0
  4  5  2  0
  5  6  1  0
  6  7  2  0
  7  8  1  0
  7  9  1  0
  9 10  2  0
  3 11  2  0
 11 12  1  0
 12 13  1  0
 13 14  2  0
 14 15  1  0
 15 16  1  0
 16 17  1  0
 17 18  1  0
 18 19  1  0
 17 20  1  0
 20 21  1  0
 20 22  1  0
 22 23  1  0
 22 24  1  0
 24 25  1  0
 14 26  1  0
 26 27  1  0
 26 28  2  0
 28 29  1  0
 29 30  2  0
 30  2  1  0
 10  4  1  0
 30 13  1  0
 24 15  1  0
  5 31  1  0
  6 32  1  0
  8 33  1  0
  9 34  1  0
 10 35  1  0
 11 36  1  0
 15 37  1  1
 17 38  1  1
 18 39  1  0
 18 40  1  0
 19 41  1  0
 20 42  1  6
 21 43  1  0
 22 44  1  1
 23 45  1  0
 24 46  1  6
 25 47  1  0
 27 48  1  0
 28 49  1  0
 29 50  1  0
M  END
>  <meeko>  (7) 
{"is_sidechain": [false], "free_energy": -6.838, "intermolecular_energy": -8.977, "internal_energy": -1.017}

$$$$
puerarin_run02
     RDKit          3D

 50 53  0  0  0  0  0  0  0  0999 V2000
   28.7660   -7.3340  -10.7670 O   0  0  0  0  0  0  0  0  0  0  0  0
   28.6700   -7.7530   -9.6210 C   0  0  0  0  0  0  0  0  0  0  0  0
   29.6440   -7.3900   -8.5550 C   0  0  0  0  0  0  0  0  0  0  0  0
   30.8170   -6.5450   -8.8260 C   0  0  0  0  0  0  0  0  0  0  0  0
   32.0110   -7.1220   -9.2630 C   0  0  0  0  0  0  0  0  0  0  0  0
   33.1230   -6.3200   -9.5200 C   0  0  0  0  0  0  0  0  0  0  0  0
   33.0440   -4.9390   -9.3410 C   0  0  0  0  0  0  0  0  0  0  0  0
   34.1300   -4.1570   -9.5910 O   0  0  0  0  0  0  0  0  0  0  0  0
   31.8530   -4.3600   -8.9040 C   0  0  0  0  0  0  0  0  0  0  0  0
   30.7400   -5.1620   -8.6470 C   0  0  0  0  0  0  0  0  0  0  0  0
   29.4220   -7.8840   -7.3270 C   0  0  0  0  0  0  0  0  0  0  0  0
   28.3820   -8.6930   -6.9390 O   0  0  0  0  0  0  0  0  0  0  0  0
   27.4740   -9.0650   -7.8970 C   0  0  0  0  0  0  0  0  0  0  0  0
   26.4310   -9.9010   -7.4970 C   0  0  0  0  0  0  0  0  0  0  0  0
   26.3280  -10.3670   -6.0580 C   0  0  2  0  0  0  0  0  0  0  0  0
   25.8760  -11.7250   -6.0720 O   0  0  0  0  0  0  0  0  0  0  0  0
   25.8280  -12.3050   -4.7690 C   0  0  2  0  0  0  0  0  0  0  0  0
   25.4450  -13.7730   -4.9340 C   0  0  0  0  0  0  0  0  0  0  0  0
   24.0680  -13.9150   -4.6340 O   0  0  0  0  0  0  0  0  0  0  0  0
   24.8230  -11.5520   -3.8950 C   0  0  1  0  0  0  0  0  0  0  0  0
   24.8450  -12.0940   -2.5780 O   0  0  0  0  0  0  0  0  0  0  0  0
   25.1650  -10.0630   -3.8340 C   0  0  2  0  0  0  0  0  0  0  0  0
   24.0790   -9.3870   -3.2000 O   0  0  0  0  0  0  0  0  0  0  0  0
   25.3780   -9.4830   -5.2350 C   0  0  1  0  0  0  0  0  0  0  0  0
   25.9540   -8.1820   -5.1160 O   0  0  0  0  0  0  0  0  0  0  0  0
   25.4770  -10.3120   -8.4280 C   0  0  0  0  0  0  0  0  0  0  0  0
   24.4500  -11.1280   -8.0590 O   0  0  0  0  0  0  0  0  0  0  0  0
   25.5630   -9.8870   -9.7540 C   0  0  0  0  0  0  0  0  0  0  0  0
   26.6060   -9.0500  -10.1550 C   0  0  0  0  0  0  0  0  0  0  0  0
   27.5610   -8.6400   -9.2220 C   0  0  0  0  0  0  0  0  0  0  0  0
   32.0749   -8.2109   -9.4049 H   0  0  0  0  0  0  0  0  0  0  0  0
   34.0626   -6.7769   -9.8640 H   0  0  0  0  0  0  0  0  0  0  0  0
   34.4120   -3.7350   -8.7610 H   0  0  0  0  0  0  0  0  0  0  0  0
   31.7907   -3.2710   -8.7618 H   0  0  0  0  0  0  0  0  0  0  0  0
   29.8008   -4.7042   -8.3030 H   0  0  0  0  0  0  0  0  0  0  0  0
   30.1502   -7.6121   -6.5487 H   0  0  0  0  0  0  0  0  0  0  0  0
   27.3139  -10.2917   -5.5761 H   0  0  0  0  0  0  0  0  0  0  0  0
   26.8040  -12.2343   -4.2666 H   0  0  0  0  0  0  0  0  0  0  0  0
   25.6338  -14.0915   -5.9698 H   0  0  0  0  0  0  0  0  0  0  0  0
   26.0448  -14.3974   -4.2555 H   0  0  0  0  0  0  0  0  0  0  0  0
   23.6150  -14.1860   -5.4510 H   0  0  0  0  0  0  0  0  0  0  0  0
   23.8211  -11.6651   -4.3348 H   0  0  0  0  0  0  0  0  0  0  0  0
   25.7470  -12.4080   -2.3970 H   0  0  0  0  0  0  0  0  0  0  0  0
   26.0994   -9.9286   -3.2693 H   0  0  0  0  0  0  0  0  0  0  0  0
   23.8560   -8.6170   -3.7510 H   0  0  0  0  0  0  0  0  0  0  0  0
   24.4047   -9.4357   -5.7453 H   0  0  0  0  0  0  0  0  0  0  0  0
   25.2340   -7.5310   -5.1690 H   0  0  0  0  0  0  0  0  0  0  0  0
   24.5430  -11.9830   -8.5140 H   0  0  0  0  0  0  0  0  0  0  0  0
   24.8078  -10.2119  -10.4848 H   0  0  0  0  0  0  0  0  0  0  0  0
   26.6753   -8.7151  -11.2005 H   0  0  0  0  0  0  0  0  0  0  0  0
  1  2  2  0
  2  3  1  0
  3  4  1  0
  4  5  2  0
  5  6  1  0
  6  7  2  0
  7  8  1  0
  7  9  1  0
  9 10  2  0
  3 11  2  0
 11 12  1  0
 12 13  1  0
 13 14  2  0
 14 15  1  0
 15 16  1  0
 16 17  1  0
 17 18  1  0
 18 19  1  0
 17 20  1  0
 20 21  1  0
 20 22  1  0
 22 23  1  0
 22 24  1  0
 24 25  1  0
 14 26  1  0
 26 27  1  0
 26 28  2  0
 28 29  1  0
 29 30  2  0
 30  2  1  0
 10  4  1  0
 30 13  1  0
 24 15  1  0
  5 31  1  0
  6 32  1  0
  8 33  1  0
  9 34  1  0
 10 35  1  0
 11 36  1  0
 15 37  1  1
 17 38  1  1
 18 39  1  0
 18 40  1  0
 19 41  1  0
 20 42  1  6
 21 43  1  0
 22 44  1  1
 23 45  1  0
 24 46  1  6
 25 47  1  0
 27 48  1  0
 28 49  1  0
 29 50  1  0
M  END
>  <meeko>  (8) 
{"is_sidechain": [false], "free_energy": -6.828, "intermolecular_energy": -8.852, "internal_energy": -1.128}

$$$$
puerarin_run02
     RDKit          3D

 50 53  0  0  0  0  0  0  0  0999 V2000
   28.5330  -11.5520   -6.7110 O   0  0  0  0  0  0  0  0  0  0  0  0
   27.8010  -10.7290   -7.2460 C   0  0  0  0  0  0  0  0  0  0  0  0
   26.6310  -10.1280   -6.5480 C   0  0  0  0  0  0  0  0  0  0  0  0
   26.2480  -10.5280   -5.1840 C   0  0  0  0  0  0  0  0  0  0  0  0
   25.1850  -11.4110   -4.9850 C   0  0  0  0  0  0  0  0  0  0  0  0
   24.8220  -11.7900   -3.6930 C   0  0  0  0  0  0  0  0  0  0  0  0
   25.5210  -11.2860   -2.5950 C   0  0  0  0  0  0  0  0  0  0  0  0
   25.1660  -11.6550   -1.3350 O   0  0  0  0  0  0  0  0  0  0  0  0
   26.5840  -10.4040   -2.7920 C   0  0  0  0  0  0  0  0  0  0  0  0
   26.9470  -10.0250   -4.0840 C   0  0  0  0  0  0  0  0  0  0  0  0
   25.9180   -9.2130   -7.2210 C   0  0  0  0  0  0  0  0  0  0  0  0
   26.1520   -8.7600   -8.4970 O   0  0  0  0  0  0  0  0  0  0  0  0
   27.2100   -9.3030   -9.1800 C   0  0  0  0  0  0  0  0  0  0  0  0
   27.4300   -8.8500  -10.4810 C   0  0  0  0  0  0  0  0  0  0  0  0
   26.5220   -7.8010  -11.0920 C   0  0  2  0  0  0  0  0  0  0  0  0
   26.6620   -6.6030  -10.3220 O   0  0  0  0  0  0  0  0  0  0  0  0
   25.9190   -5.5090  -10.8590 C   0  0  2  0  0  0  0  0  0  0  0  0
   26.2430   -4.2780  -10.0180 C   0  0  0  0  0  0  0  0  0  0  0  0
   25.1900   -4.0730   -9.0940 O   0  0  0  0  0  0  0  0  0  0  0  0
   24.4230   -5.8300  -10.8390 C   0  0  1  0  0  0  0  0  0  0  0  0
   23.7040   -4.7630  -11.4490 O   0  0  0  0  0  0  0  0  0  0  0  0
   24.1370   -7.1280  -11.5940 C   0  0  2  0  0  0  0  0  0  0  0  0
   22.7760   -7.4890  -11.3520 O   0  0  0  0  0  0  0  0  0  0  0  0
   25.0550   -8.2600  -11.1250 C   0  0  1  0  0  0  0  0  0  0  0  0
   24.9410   -9.3570  -12.0320 O   0  0  0  0  0  0  0  0  0  0  0  0
   28.4910   -9.3650  -11.2250 C   0  0  0  0  0  0  0  0  0  0  0  0
   28.7230   -8.9370  -12.4970 O   0  0  0  0  0  0  0  0  0  0  0  0
   29.3320  -10.3300  -10.6690 C   0  0  0  0  0  0  0  0  0  0  0  0
   29.1140  -10.7840   -9.3680 C   0  0  0  0  0  0  0  0  0  0  0  0
   28.0500  -10.2670   -8.6240 C   0  0  0  0  0  0  0  0  0  0  0  0
   24.6326  -11.8086   -5.8492 H   0  0  0  0  0  0  0  0  0  0  0  0
   23.9845  -12.4864   -3.5391 H   0  0  0  0  0  0  0  0  0  0  0  0
   24.9860  -10.8550   -0.8120 H   0  0  0  0  0  0  0  0  0  0  0  0
   27.1362  -10.0072   -1.9274 H   0  0  0  0  0  0  0  0  0  0  0  0
   27.7849   -9.3290   -4.2372 H   0  0  0  0  0  0  0  0  0  0  0  0
   25.0543   -8.7791   -6.6959 H   0  0  0  0  0  0  0  0  0  0  0  0
   26.8147   -7.6266  -12.1379 H   0  0  0  0  0  0  0  0  0  0  0  0
   26.1919   -5.3201  -11.9077 H   0  0  0  0  0  0  0  0  0  0  0  0
   27.1865   -4.4376   -9.4754 H   0  0  0  0  0  0  0  0  0  0  0  0
   26.3504   -3.3966  -10.6673 H   0  0  0  0  0  0  0  0  0  0  0  0
   25.3640   -3.2370   -8.6300 H   0  0  0  0  0  0  0  0  0  0  0  0
   24.1038   -5.9529   -9.7935 H   0  0  0  0  0  0  0  0  0  0  0  0
   23.4870   -4.1130  -10.7590 H   0  0  0  0  0  0  0  0  0  0  0  0
   24.3206   -6.9699  -12.6670 H   0  0  0  0  0  0  0  0  0  0  0  0
   22.2700   -6.6630  -11.2620 H   0  0  0  0  0  0  0  0  0  0  0  0
   24.7520   -8.5574  -10.1103 H   0  0  0  0  0  0  0  0  0  0  0  0
   25.8210   -9.7570  -12.1300 H   0  0  0  0  0  0  0  0  0  0  0  0
   27.9590   -9.1620  -13.0540 H   0  0  0  0  0  0  0  0  0  0  0  0
   30.1688  -10.7336  -11.2580 H   0  0  0  0  0  0  0  0  0  0  0  0
   29.7764  -11.5452   -8.9300 H   0  0  0  0  0  0  0  0  0  0  0  0
  1  2  2  0
  2  3  1  0
  3  4  1  0
  4  5  2  0
  5  6  1  0
  6  7  2  0
  7  8  1  0
  7  9  1  0
  9 10  2  0
  3 11  2  0
 11 12  1  0
 12 13  1  0
 13 14  2  0
 14 15  1  0
 15 16  1  0
 16 17  1  0
 17 18  1  0
 18 19  1  0
 17 20  1  0
 20 21  1  0
 20 22  1  0
 22 23  1  0
 22 24  1  0
 24 25  1  0
 14 26  1  0
 26 27  1  0
 26 28  2  0
 28 29  1  0
 29 30  2  0
 30  2  1  0
 10  4  1  0
 30 13  1  0
 24 15  1  0
  5 31  1  0
  6 32  1  0
  8 33  1  0
  9 34  1  0
 10 35  1  0
 11 36  1  0
 15 37  1  6
 17 38  1  6
 18 39  1  0
 18 40  1  0
 19 41  1  0
 20 42  1  1
 21 43  1  0
 22 44  1  6
 23 45  1  0
 24 46  1  1
 25 47  1  0
 27 48  1  0
 28 49  1  0
 29 50  1  0
M  END
>  <meeko>  (9) 
{"is_sidechain": [false], "free_energy": -6.821, "intermolecular_energy": -9.422, "internal_energy": -0.549}

$$$$
puerarin_run02
     RDKit          3D

 50 53  0  0  0  0  0  0  0  0999 V2000
   28.3050   -6.4980   -9.5000 O   0  0  0  0  0  0  0  0  0  0  0  0
   27.8910   -6.9820   -8.4540 C   0  0  0  0  0  0  0  0  0  0  0  0
   28.1950   -6.3860   -7.1240 C   0  0  0  0  0  0  0  0  0  0  0  0
   29.0580   -5.2030   -6.9790 C   0  0  0  0  0  0  0  0  0  0  0  0
   28.5210   -3.9210   -7.1120 C   0  0  0  0  0  0  0  0  0  0  0  0
   29.3400   -2.8010   -6.9740 C   0  0  0  0  0  0  0  0  0  0  0  0
   30.6990   -2.9590   -6.7030 C   0  0  0  0  0  0  0  0  0  0  0  0
   31.4980   -1.8660   -6.5690 O   0  0  0  0  0  0  0  0  0  0  0  0
   31.2380   -4.2380   -6.5690 C   0  0  0  0  0  0  0  0  0  0  0  0
   30.4190   -5.3590   -6.7070 C   0  0  0  0  0  0  0  0  0  0  0  0
   27.6630   -6.9840   -6.0470 C   0  0  0  0  0  0  0  0  0  0  0  0
   26.8560   -8.0960   -6.0360 O   0  0  0  0  0  0  0  0  0  0  0  0
   26.5690   -8.6850   -7.2400 C   0  0  0  0  0  0  0  0  0  0  0  0
   25.7640   -9.8250   -7.2170 C   0  0  0  0  0  0  0  0  0  0  0  0
   25.2420  -10.3690   -5.9020 C   0  0  2  0  0  0  0  0  0  0  0  0
   24.2510   -9.4570   -5.4170 O   0  0  0  0  0  0  0  0  0  0  0  0
   23.6170   -9.9130   -4.2220 C   0  0  2  0  0  0  0  0  0  0  0  0
   22.5150   -8.9150   -3.8790 C   0  0  0  0  0  0  0  0  0  0  0  0
   22.9830   -7.6100   -4.1670 O   0  0  0  0  0  0  0  0  0  0  0  0
   24.6450  -10.0300   -3.0950 C   0  0  1  0  0  0  0  0  0  0  0  0
   24.0130  -10.5590   -1.9330 O   0  0  0  0  0  0  0  0  0  0  0  0
   25.7970  -10.9480   -3.5040 C   0  0  2  0  0  0  0  0  0  0  0  0
   26.8210  -10.8400   -2.5140 O   0  0  0  0  0  0  0  0  0  0  0  0
   26.3650  -10.5530   -4.8700 C   0  0  1  0  0  0  0  0  0  0  0  0
   27.2390  -11.5870   -5.3260 O   0  0  0  0  0  0  0  0  0  0  0  0
   25.4380  -10.4680   -8.4110 C   0  0  0  0  0  0  0  0  0  0  0  0
   24.6540  -11.5810   -8.4110 O   0  0  0  0  0  0  0  0  0  0  0  0
   25.9140   -9.9720   -9.6250 C   0  0  0  0  0  0  0  0  0  0  0  0
   26.7190   -8.8320   -9.6510 C   0  0  0  0  0  0  0  0  0  0  0  0
   27.0450   -8.1900   -8.4530 C   0  0  0  0  0  0  0  0  0  0  0  0
   27.4495   -3.7943   -7.3261 H   0  0  0  0  0  0  0  0  0  0  0  0
   28.9141   -1.7923   -7.0789 H   0  0  0  0  0  0  0  0  0  0  0  0
   30.9400   -1.0700   -6.5390 H   0  0  0  0  0  0  0  0  0  0  0  0
   32.3096   -4.3632   -6.3544 H   0  0  0  0  0  0  0  0  0  0  0  0
   30.8459   -6.3673   -6.6014 H   0  0  0  0  0  0  0  0  0  0  0  0
   27.8977   -6.5368   -5.0698 H   0  0  0  0  0  0  0  0  0  0  0  0
   24.8062  -11.3658   -6.0647 H   0  0  0  0  0  0  0  0  0  0  0  0
   23.1783  -10.9122   -4.3605 H   0  0  0  0  0  0  0  0  0  0  0  0
   21.6200   -9.1293   -4.4816 H   0  0  0  0  0  0  0  0  0  0  0  0
   22.2539   -8.9944   -2.8134 H   0  0  0  0  0  0  0  0  0  0  0  0
   23.6730   -7.3950   -3.5170 H   0  0  0  0  0  0  0  0  0  0  0  0
   25.0497   -9.0291   -2.8843 H   0  0  0  0  0  0  0  0  0  0  0  0
   23.8540  -11.5070   -2.0820 H   0  0  0  0  0  0  0  0  0  0  0  0
   25.4272  -11.9812   -3.5798 H   0  0  0  0  0  0  0  0  0  0  0  0
   26.6920  -11.5700   -1.8840 H   0  0  0  0  0  0  0  0  0  0  0  0
   26.9061   -9.6015   -4.7609 H   0  0  0  0  0  0  0  0  0  0  0  0
   26.6910  -12.3180   -5.6550 H   0  0  0  0  0  0  0  0  0  0  0  0
   25.2120  -12.3650   -8.2710 H   0  0  0  0  0  0  0  0  0  0  0  0
   25.6540  -10.4810  -10.5648 H   0  0  0  0  0  0  0  0  0  0  0  0
   27.0945   -8.4413  -10.6083 H   0  0  0  0  0  0  0  0  0  0  0  0
  1  2  2  0
  2  3  1  0
  3  4  1  0
  4  5  2  0
  5  6  1  0
  6  7  2  0
  7  8  1  0
  7  9  1  0
  9 10  2  0
  3 11  2  0
 11 12  1  0
 12 13  1  0
 13 14  2  0
 14 15  1  0
 15 16  1  0
 16 17  1  0
 17 18  1  0
 18 19  1  0
 17 20  1  0
 20 21  1  0
 20 22  1  0
 22 23  1  0
 22 24  1  0
 24 25  1  0
 14 26  1  0
 26 27  1  0
 26 28  2  0
 28 29  1  0
 29 30  2  0
 30  2  1  0
 10  4  1  0
 30 13  1  0
 24 15  1  0
  5 31  1  0
  6 32  1  0
  8 33  1  0
  9 34  1  0
 10 35  1  0
 11 36  1  0
 15 37  1  6
 17 38  1  6
 18 39  1  0
 18 40  1  0
 19 41  1  0
 20 42  1  1
 21 43  1  0
 22 44  1  6
 23 45  1  0
 24 46  1  1
 25 47  1  0
 27 48  1  0
 28 49  1  0
 29 50  1  0
M  END
>  <meeko>  (10) 
{"is_sidechain": [false], "free_energy": -6.808, "intermolecular_energy": -9.63, "internal_energy": -0.324}

$$$$
puerarin_run02
     RDKit          3D

 50 53  0  0  0  0  0  0  0  0999 V2000
   29.3410   -5.3960   -8.4900 O   0  0  0  0  0  0  0  0  0  0  0  0
   28.4720   -6.2320   -8.2780 C   0  0  0  0  0  0  0  0  0  0  0  0
   27.3140   -6.4260   -9.1930 C   0  0  0  0  0  0  0  0  0  0  0  0
   27.1110   -5.5860  -10.3840 C   0  0  0  0  0  0  0  0  0  0  0  0
   27.6310   -5.9820  -11.6180 C   0  0  0  0  0  0  0  0  0  0  0  0
   27.4390   -5.1860  -12.7470 C   0  0  0  0  0  0  0  0  0  0  0  0
   26.7260   -3.9910  -12.6450 C   0  0  0  0  0  0  0  0  0  0  0  0
   26.5400   -3.2140  -13.7460 O   0  0  0  0  0  0  0  0  0  0  0  0
   26.2060   -3.5930  -11.4140 C   0  0  0  0  0  0  0  0  0  0  0  0
   26.3980   -4.3890  -10.2850 C   0  0  0  0  0  0  0  0  0  0  0  0
   26.4380   -7.3930   -8.8780 C   0  0  0  0  0  0  0  0  0  0  0  0
   26.4960   -8.2360   -7.7950 O   0  0  0  0  0  0  0  0  0  0  0  0
   27.5380   -8.0760   -6.9190 C   0  0  0  0  0  0  0  0  0  0  0  0
   27.5780   -8.9250   -5.8120 C   0  0  0  0  0  0  0  0  0  0  0  0
   26.5010   -9.9720   -5.6090 C   0  0  2  0  0  0  0  0  0  0  0  0
   26.1030   -9.9250   -4.2350 O   0  0  0  0  0  0  0  0  0  0  0  0
   25.0210  -10.8090   -3.9410 C   0  0  2  0  0  0  0  0  0  0  0  0
   24.6230  -10.5800   -2.4860 C   0  0  0  0  0  0  0  0  0  0  0  0
   24.9900  -11.7220   -1.7340 O   0  0  0  0  0  0  0  0  0  0  0  0
   25.4460  -12.2580   -4.1900 C   0  0  1  0  0  0  0  0  0  0  0  0
   24.3330  -13.1200   -3.9680 O   0  0  0  0  0  0  0  0  0  0  0  0
   25.9450  -12.4380   -5.6240 C   0  0  2  0  0  0  0  0  0  0  0  0
   26.5300  -13.7370   -5.7270 O   0  0  0  0  0  0  0  0  0  0  0  0
   26.9880  -11.3790   -5.9880 C   0  0  1  0  0  0  0  0  0  0  0  0
   27.2190  -11.4190   -7.3960 O   0  0  0  0  0  0  0  0  0  0  0  0
   28.6150   -8.8090   -4.8870 C   0  0  0  0  0  0  0  0  0  0  0  0
   28.6730   -9.6280   -3.8000 O   0  0  0  0  0  0  0  0  0  0  0  0
   29.6110   -7.8490   -5.0670 C   0  0  0  0  0  0  0  0  0  0  0  0
   29.5730   -6.9990   -6.1740 C   0  0  0  0  0  0  0  0  0  0  0  0
   28.5320   -7.1160   -7.0990 C   0  0  0  0  0  0  0  0  0  0  0  0
   28.1933   -6.9239  -11.6998 H   0  0  0  0  0  0  0  0  0  0  0  0
   27.8497   -5.5003  -13.7179 H   0  0  0  0  0  0  0  0  0  0  0  0
   25.8740   -3.6320  -14.3180 H   0  0  0  0  0  0  0  0  0  0  0  0
   25.6441   -2.6508  -11.3333 H   0  0  0  0  0  0  0  0  0  0  0  0
   25.9871   -4.0735   -9.3146 H   0  0  0  0  0  0  0  0  0  0  0  0
   25.5839   -7.5242   -9.5587 H   0  0  0  0  0  0  0  0  0  0  0  0
   25.6481   -9.7533   -6.2683 H   0  0  0  0  0  0  0  0  0  0  0  0
   24.1575  -10.6111   -4.5931 H   0  0  0  0  0  0  0  0  0  0  0  0
   25.1444   -9.6944   -2.0938 H   0  0  0  0  0  0  0  0  0  0  0  0
   23.5379  -10.4145   -2.4140 H   0  0  0  0  0  0  0  0  0  0  0  0
   25.3600  -11.4120   -0.8900 H   0  0  0  0  0  0  0  0  0  0  0  0
   26.2638  -12.5084   -3.4983 H   0  0  0  0  0  0  0  0  0  0  0  0
   24.6700  -13.9610   -3.6140 H   0  0  0  0  0  0  0  0  0  0  0  0
   25.0991  -12.3277   -6.3185 H   0  0  0  0  0  0  0  0  0  0  0  0
   27.1050  -13.7340   -6.5120 H   0  0  0  0  0  0  0  0  0  0  0  0
   27.9129  -11.5954   -5.4332 H   0  0  0  0  0  0  0  0  0  0  0  0
   27.7810  -12.1890   -7.5860 H   0  0  0  0  0  0  0  0  0  0  0  0
   29.5350   -9.5190   -3.3640 H   0  0  0  0  0  0  0  0  0  0  0  0
   30.4278   -7.7615   -4.3354 H   0  0  0  0  0  0  0  0  0  0  0  0
   30.3578   -6.2417   -6.3172 H   0  0  0  0  0  0  0  0  0  0  0  0
  1  2  2  0
  2  3  1  0
  3  4  1  0
  4  5  2  0
  5  6  1  0
  6  7  2  0
  7  8  1  0
  7  9  1  0
  9 10  2  0
  3 11  2  0
 11 12  1  0
 12 13  1  0
 13 14  2  0
 14 15  1  0
 15 16  1  0
 16 17  1  0
 17 18  1  0
 18 19  1  0
 17 20  1  0
 20 21  1  0
 20 22  1  0
 22 23  1  0
 22 24  1  0
 24 25  1  0
 14 26  1  0
 26 27  1  0
 26 28  2  0
 28 29  1  0
 29 30  2  0
 30  2  1  0
 10  4  1  0
 30 13  1  0
 24 15  1  0
  5 31  1  0
  6 32  1  0
  8 33  1  0
  9 34  1  0
 10 35  1  0
 11 36  1  0
 15 37  1  6
 17 38  1  6
 18 39  1  0
 18 40  1  0
 19 41  1  0
 20 42  1  1
 21 43  1  0
 22 44  1  6
 23 45  1  0
 24 46  1  1
 25 47  1  0
 27 48  1  0
 28 49  1  0
 29 50  1  0
M  END
>  <meeko>  (11) 
{"is_sidechain": [false], "free_energy": -6.62, "intermolecular_energy": -8.56, "internal_energy": -1.139}

$$$$
puerarin_run02
     RDKit          3D

 50 53  0  0  0  0  0  0  0  0999 V2000
   28.5250  -11.2560   -6.7130 O   0  0  0  0  0  0  0  0  0  0  0  0
   27.6000  -10.7020   -7.2950 C   0  0  0  0  0  0  0  0  0  0  0  0
   26.3170  -10.3690   -6.6180 C   0  0  0  0  0  0  0  0  0  0  0  0
   26.0580  -10.7340   -5.2160 C   0  0  0  0  0  0  0  0  0  0  0  0
   25.1800  -11.7770   -4.9130 C   0  0  0  0  0  0  0  0  0  0  0  0
   24.9350  -12.1230   -3.5840 C   0  0  0  0  0  0  0  0  0  0  0  0
   25.5670  -11.4260   -2.5540 C   0  0  0  0  0  0  0  0  0  0  0  0
   25.3270  -11.7630   -1.2570 O   0  0  0  0  0  0  0  0  0  0  0  0
   26.4450  -10.3840   -2.8540 C   0  0  0  0  0  0  0  0  0  0  0  0
   26.6900  -10.0380   -4.1830 C   0  0  0  0  0  0  0  0  0  0  0  0
   25.3850   -9.7350   -7.3460 C   0  0  0  0  0  0  0  0  0  0  0  0
   25.4870   -9.3510   -8.6610 O   0  0  0  0  0  0  0  0  0  0  0  0
   26.6470   -9.6560   -9.3240 C   0  0  0  0  0  0  0  0  0  0  0  0
   26.7340   -9.2770  -10.6650 C   0  0  0  0  0  0  0  0  0  0  0  0
   25.5800   -8.5600  -11.3360 C   0  0  2  0  0  0  0  0  0  0  0  0
   25.5170   -9.0120  -12.6930 O   0  0  0  0  0  0  0  0  0  0  0  0
   24.4050   -8.4710  -13.4060 C   0  0  2  0  0  0  0  0  0  0  0  0
   24.3900   -9.1150  -14.7890 C   0  0  0  0  0  0  0  0  0  0  0  0
   25.7140   -9.4890  -15.1260 O   0  0  0  0  0  0  0  0  0  0  0  0
   24.5270   -6.9480  -13.4920 C   0  0  1  0  0  0  0  0  0  0  0  0
   23.3720   -6.4190  -14.1360 O   0  0  0  0  0  0  0  0  0  0  0  0
   24.6520   -6.3340  -12.0970 C   0  0  2  0  0  0  0  0  0  0  0  0
   24.9840   -4.9540  -12.2500 O   0  0  0  0  0  0  0  0  0  0  0  0
   25.7390   -7.0330  -11.2770 C   0  0  1  0  0  0  0  0  0  0  0  0
   25.6340   -6.6160   -9.9150 O   0  0  0  0  0  0  0  0  0  0  0  0
   27.8900   -9.5610  -11.3910 C   0  0  0  0  0  0  0  0  0  0  0  0
   27.9960   -9.2000  -12.7000 O   0  0  0  0  0  0  0  0  0  0  0  0
   28.9570  -10.2200  -10.7800 C   0  0  0  0  0  0  0  0  0  0  0  0
   28.8720  -10.5990   -9.4400 C   0  0  0  0  0  0  0  0  0  0  0  0
   27.7130  -10.3150   -8.7140 C   0  0  0  0  0  0  0  0  0  0  0  0
   24.6805  -12.3269   -5.7242 H   0  0  0  0  0  0  0  0  0  0  0  0
   24.2435  -12.9454   -3.3482 H   0  0  0  0  0  0  0  0  0  0  0  0
   26.1720  -11.9770   -0.8260 H   0  0  0  0  0  0  0  0  0  0  0  0
   26.9443   -9.8350   -2.0421 H   0  0  0  0  0  0  0  0  0  0  0  0
   27.3820   -9.2158   -4.4178 H   0  0  0  0  0  0  0  0  0  0  0  0
   24.4397   -9.4977   -6.8361 H   0  0  0  0  0  0  0  0  0  0  0  0
   24.6454   -8.7933  -10.8049 H   0  0  0  0  0  0  0  0  0  0  0  0
   23.4583   -8.6875  -12.8894 H   0  0  0  0  0  0  0  0  0  0  0  0
   23.7448  -10.0058  -14.7763 H   0  0  0  0  0  0  0  0  0  0  0  0
   23.9992   -8.4036  -15.5314 H   0  0  0  0  0  0  0  0  0  0  0  0
   26.0740   -9.9990  -14.3810 H   0  0  0  0  0  0  0  0  0  0  0  0
   25.4303   -6.6997  -14.0685 H   0  0  0  0  0  0  0  0  0  0  0  0
   23.5210   -6.4550  -15.0970 H   0  0  0  0  0  0  0  0  0  0  0  0
   23.6987   -6.4541  -11.5615 H   0  0  0  0  0  0  0  0  0  0  0  0
   25.8620   -4.8220  -11.8520 H   0  0  0  0  0  0  0  0  0  0  0  0
   26.7192   -6.7621  -11.6962 H   0  0  0  0  0  0  0  0  0  0  0  0
   26.1900   -7.2050   -9.3780 H   0  0  0  0  0  0  0  0  0  0  0  0
   28.5000   -8.3710  -12.7630 H   0  0  0  0  0  0  0  0  0  0  0  0
   29.8676  -10.4413  -11.3561 H   0  0  0  0  0  0  0  0  0  0  0  0
   29.7131  -11.1186   -8.9579 H   0  0  0  0  0  0  0  0  0  0  0  0
  1  2  2  0
  2  3  1  0
  3  4  1  0
  4  5  2  0
  5  6  1  0
  6  7  2  0
  7  8  1  0
  7  9  1  0
  9 10  2  0
  3 11  2  0
 11 12  1  0
 12 13  1  0
 13 14  2  0
 14 15  1  0
 15 16  1  0
 16 17  1  0
 17 18  1  0
 18 19  1  0
 17 20  1  0
 20 21  1  0
 20 22  1  0
 22 23  1  0
 22 24  1  0
 24 25  1  0
 14 26  1  0
 26 27  1  0
 26 28  2  0
 28 29  1  0
 29 30  2  0
 30  2  1  0
 10  4  1  0
 30 13  1  0
 24 15  1  0
  5 31  1  0
  6 32  1  0
  8 33  1  0
  9 34  1  0
 10 35  1  0
 11 36  1  0
 15 37  1  1
 17 38  1  1
 18 39  1  0
 18 40  1  0
 19 41  1  0
 20 42  1  6
 21 43  1  0
 22 44  1  1
 23 45  1  0
 24 46  1  6
 25 47  1  0
 27 48  1  0
 28 49  1  0
 29 50  1  0
M  END
>  <meeko>  (12) 
{"is_sidechain": [false], "free_energy": -6.56, "intermolecular_energy": -8.705, "internal_energy": -0.914}

$$$$
puerarin_run02
     RDKit          3D

 50 53  0  0  0  0  0  0  0  0999 V2000
   31.8510   -8.0550   -7.7830 O   0  0  0  0  0  0  0  0  0  0  0  0
   30.9410   -8.8220   -7.4980 C   0  0  0  0  0  0  0  0  0  0  0  0
   31.0160  -10.2850   -7.7670 C   0  0  0  0  0  0  0  0  0  0  0  0
   32.1710  -10.8940   -8.4450 C   0  0  0  0  0  0  0  0  0  0  0  0
   33.2850  -11.2980   -7.7060 C   0  0  0  0  0  0  0  0  0  0  0  0
   34.3800  -11.8750   -8.3480 C   0  0  0  0  0  0  0  0  0  0  0  0
   34.3650  -12.0510   -9.7320 C   0  0  0  0  0  0  0  0  0  0  0  0
   35.4330  -12.6140  -10.3590 O   0  0  0  0  0  0  0  0  0  0  0  0
   33.2530  -11.6490  -10.4730 C   0  0  0  0  0  0  0  0  0  0  0  0
   32.1580  -11.0710   -9.8300 C   0  0  0  0  0  0  0  0  0  0  0  0
   29.9710  -11.0340   -7.3840 C   0  0  0  0  0  0  0  0  0  0  0  0
   28.8280  -10.5970   -6.7600 O   0  0  0  0  0  0  0  0  0  0  0  0
   28.7130   -9.2540   -6.5110 C   0  0  0  0  0  0  0  0  0  0  0  0
   27.5400   -8.8170   -5.8930 C   0  0  0  0  0  0  0  0  0  0  0  0
   26.4540   -9.8070   -5.5230 C   0  0  2  0  0  0  0  0  0  0  0  0
   26.6340  -10.1570   -4.1460 O   0  0  0  0  0  0  0  0  0  0  0  0
   25.6090  -11.0190   -3.6540 C   0  0  2  0  0  0  0  0  0  0  0  0
   25.8550  -11.2190   -2.1620 C   0  0  0  0  0  0  0  0  0  0  0  0
   24.6410  -11.6240   -1.5560 O   0  0  0  0  0  0  0  0  0  0  0  0
   25.6310  -12.3460   -4.4150 C   0  0  1  0  0  0  0  0  0  0  0  0
   24.5530  -13.1640   -3.9670 O   0  0  0  0  0  0  0  0  0  0  0  0
   25.4930  -12.1120   -5.9200 C   0  0  2  0  0  0  0  0  0  0  0  0
   25.7440  -13.3520   -6.5830 O   0  0  0  0  0  0  0  0  0  0  0  0
   26.4900  -11.0600   -6.4120 C   0  0  1  0  0  0  0  0  0  0  0  0
   26.1460  -10.6820   -7.7460 O   0  0  0  0  0  0  0  0  0  0  0  0
   27.3670   -7.4620   -5.6140 C   0  0  0  0  0  0  0  0  0  0  0  0
   26.2310   -7.0150   -5.0120 O   0  0  0  0  0  0  0  0  0  0  0  0
   28.3630   -6.5450   -5.9510 C   0  0  0  0  0  0  0  0  0  0  0  0
   29.5370   -6.9800   -6.5690 C   0  0  0  0  0  0  0  0  0  0  0  0
   29.7080   -8.3380   -6.8480 C   0  0  0  0  0  0  0  0  0  0  0  0
   33.2986  -11.1607   -6.6147 H   0  0  0  0  0  0  0  0  0  0  0  0
   35.2561  -12.1916   -7.7630 H   0  0  0  0  0  0  0  0  0  0  0  0
   36.0120  -11.9060  -10.6910 H   0  0  0  0  0  0  0  0  0  0  0  0
   33.2397  -11.7878  -11.5641 H   0  0  0  0  0  0  0  0  0  0  0  0
   31.2824  -10.7540  -10.4155 H   0  0  0  0  0  0  0  0  0  0  0  0
   30.0364  -12.1122   -7.5916 H   0  0  0  0  0  0  0  0  0  0  0  0
   25.4686   -9.3444   -5.6810 H   0  0  0  0  0  0  0  0  0  0  0  0
   24.6122  -10.5793   -3.8055 H   0  0  0  0  0  0  0  0  0  0  0  0
   26.6207  -11.9946   -2.0130 H   0  0  0  0  0  0  0  0  0  0  0  0
   26.2070  -10.2803   -1.7093 H   0  0  0  0  0  0  0  0  0  0  0  0
   24.4160  -12.5030   -1.9060 H   0  0  0  0  0  0  0  0  0  0  0  0
   26.5924  -12.8447   -4.2225 H   0  0  0  0  0  0  0  0  0  0  0  0
   24.9300  -13.9760   -3.5850 H   0  0  0  0  0  0  0  0  0  0  0  0
   24.4800  -11.7434   -6.1392 H   0  0  0  0  0  0  0  0  0  0  0  0
   25.5100  -13.2310   -7.5200 H   0  0  0  0  0  0  0  0  0  0  0  0
   27.5004  -11.4933   -6.3746 H   0  0  0  0  0  0  0  0  0  0  0  0
   26.5910  -11.2950   -8.3540 H   0  0  0  0  0  0  0  0  0  0  0  0
   25.5440   -6.8780   -5.6860 H   0  0  0  0  0  0  0  0  0  0  0  0
   28.2230   -5.4767   -5.7293 H   0  0  0  0  0  0  0  0  0  0  0  0
   30.3227   -6.2575   -6.8347 H   0  0  0  0  0  0  0  0  0  0  0  0
  1  2  2  0
  2  3  1  0
  3  4  1  0
  4  5  2  0
  5  6  1  0
  6  7  2  0
  7  8  1  0
  7  9  1  0
  9 10  2  0
  3 11  2  0
 11 12  1  0
 12 13  1  0
 13 14  2  0
 14 15  1  0
 15 16  1  0
 16 17  1  0
 17 18  1  0
 18 19  1  0
 17 20  1  0
 20 21  1  0
 20 22  1  0
 22 23  1  0
 22 24  1  0
 24 25  1  0
 14 26  1  0
 26 27  1  0
 26 28  2  0
 28 29  1  0
 29 30  2  0
 30  2  1  0
 10  4  1  0
 30 13  1  0
 24 15  1  0
  5 31  1  0
  6 32  1  0
  8 33  1  0
  9 34  1  0
 10 35  1  0
 11 36  1  0
 15 37  1  1
 17 38  1  1
 18 39  1  0
 18 40  1  0
 19 41  1  0
 20 42  1  6
 21 43  1  0
 22 44  1  1
 23 45  1  0
 24 46  1  6
 25 47  1  0
 27 48  1  0
 28 49  1  0
 29 50  1  0
M  END
>  <meeko>  (13) 
{"is_sidechain": [false], "free_energy": -6.485, "intermolecular_energy": -9.398, "internal_energy": -0.119}

$$$$
puerarin_run02
     RDKit          3D

 50 53  0  0  0  0  0  0  0  0999 V2000
   30.1710   -8.6600   -9.5110 O   0  0  0  0  0  0  0  0  0  0  0  0
   29.4080   -8.7980   -8.5640 C   0  0  0  0  0  0  0  0  0  0  0  0
   29.7020   -8.2400   -7.2150 C   0  0  0  0  0  0  0  0  0  0  0  0
   30.9570   -7.5300   -6.9220 C   0  0  0  0  0  0  0  0  0  0  0  0
   30.9990   -6.1350   -6.9620 C   0  0  0  0  0  0  0  0  0  0  0  0
   32.1890   -5.4620   -6.6840 C   0  0  0  0  0  0  0  0  0  0  0  0
   33.3400   -6.1830   -6.3640 C   0  0  0  0  0  0  0  0  0  0  0  0
   34.5010   -5.5270   -6.0940 O   0  0  0  0  0  0  0  0  0  0  0  0
   33.3000   -7.5770   -6.3230 C   0  0  0  0  0  0  0  0  0  0  0  0
   32.1100   -8.2500   -6.6010 C   0  0  0  0  0  0  0  0  0  0  0  0
   28.7790   -8.4270   -6.2590 C   0  0  0  0  0  0  0  0  0  0  0  0
   27.5780   -9.0810   -6.3890 O   0  0  0  0  0  0  0  0  0  0  0  0
   27.2790   -9.6250   -7.6120 C   0  0  0  0  0  0  0  0  0  0  0  0
   26.0650  -10.3020   -7.7290 C   0  0  0  0  0  0  0  0  0  0  0  0
   25.1320  -10.4180   -6.5400 C   0  0  2  0  0  0  0  0  0  0  0  0
   25.0460   -9.1270   -5.9280 O   0  0  0  0  0  0  0  0  0  0  0  0
   24.1180   -9.0890   -4.8440 C   0  0  2  0  0  0  0  0  0  0  0  0
   24.0380   -7.6440   -4.3600 C   0  0  0  0  0  0  0  0  0  0  0  0
   22.7010   -7.3700   -3.9810 O   0  0  0  0  0  0  0  0  0  0  0  0
   24.5740  -10.0340   -3.7300 C   0  0  1  0  0  0  0  0  0  0  0  0
   23.5990  -10.0430   -2.6910 O   0  0  0  0  0  0  0  0  0  0  0  0
   24.7540  -11.4550   -4.2650 C   0  0  2  0  0  0  0  0  0  0  0  0
   25.3880  -12.2320   -3.2480 O   0  0  0  0  0  0  0  0  0  0  0  0
   25.6180  -11.4690   -5.5290 C   0  0  1  0  0  0  0  0  0  0  0  0
   25.5330  -12.7590   -6.1350 O   0  0  0  0  0  0  0  0  0  0  0  0
   25.7070  -10.8770   -8.9480 C   0  0  0  0  0  0  0  0  0  0  0  0
   24.5260  -11.5420   -9.0850 O   0  0  0  0  0  0  0  0  0  0  0  0
   26.5590  -10.7730  -10.0480 C   0  0  0  0  0  0  0  0  0  0  0  0
   27.7740  -10.0960   -9.9330 C   0  0  0  0  0  0  0  0  0  0  0  0
   28.1310   -9.5220   -8.7100 C   0  0  0  0  0  0  0  0  0  0  0  0
   30.0921   -5.5655   -7.2132 H   0  0  0  0  0  0  0  0  0  0  0  0
   32.2199   -4.3629   -6.7171 H   0  0  0  0  0  0  0  0  0  0  0  0
   34.4450   -4.6260   -6.4570 H   0  0  0  0  0  0  0  0  0  0  0  0
   34.2073   -8.1458   -6.0713 H   0  0  0  0  0  0  0  0  0  0  0  0
   32.0797   -9.3491   -6.5673 H   0  0  0  0  0  0  0  0  0  0  0  0
   29.0084   -8.0127   -5.2662 H   0  0  0  0  0  0  0  0  0  0  0  0
   24.1416  -10.7530   -6.8819 H   0  0  0  0  0  0  0  0  0  0  0  0
   23.1205   -9.4262   -5.1622 H   0  0  0  0  0  0  0  0  0  0  0  0
   24.7045   -7.5047   -3.4961 H   0  0  0  0  0  0  0  0  0  0  0  0
   24.3497   -6.9599   -5.1630 H   0  0  0  0  0  0  0  0  0  0  0  0
   22.3610   -6.6830   -4.5790 H   0  0  0  0  0  0  0  0  0  0  0  0
   25.5395   -9.6787   -3.3406 H   0  0  0  0  0  0  0  0  0  0  0  0
   23.8840   -9.4150   -2.0060 H   0  0  0  0  0  0  0  0  0  0  0  0
   23.7697  -11.8708   -4.5263 H   0  0  0  0  0  0  0  0  0  0  0  0
   25.1220  -11.8580   -2.3900 H   0  0  0  0  0  0  0  0  0  0  0  0
   26.6552  -11.2366   -5.2459 H   0  0  0  0  0  0  0  0  0  0  0  0
   26.1600  -12.7820   -6.8780 H   0  0  0  0  0  0  0  0  0  0  0  0
   23.9610  -11.3510   -8.3180 H   0  0  0  0  0  0  0  0  0  0  0  0
   26.2723  -11.2259  -11.0086 H   0  0  0  0  0  0  0  0  0  0  0  0
   28.4464  -10.0148  -10.7997 H   0  0  0  0  0  0  0  0  0  0  0  0
  1  2  2  0
  2  3  1  0
  3  4  1  0
  4  5  2  0
  5  6  1  0
  6  7  2  0
  7  8  1  0
  7  9  1  0
  9 10  2  0
  3 11  2  0
 11 12  1  0
 12 13  1  0
 13 14  2  0
 14 15  1  0
 15 16  1  0
 16 17  1  0
 17 18  1  0
 18 19  1  0
 17 20  1  0
 20 21  1  0
 20 22  1  0
 22 23  1  0
 22 24  1  0
 24 25  1  0
 14 26  1  0
 26 27  1  0
 26 28  2  0
 28 29  1  0
 29 30  2  0
 30  2  1  0
 10  4  1  0
 30 13  1  0
 24 15  1  0
  5 31  1  0
  6 32  1  0
  8 33  1  0
  9 34  1  0
 10 35  1  0
 11 36  1  0
 15 37  1  6
 17 38  1  6
 18 39  1  0
 18 40  1  0
 19 41  1  0
 20 42  1  1
 21 43  1  0
 22 44  1  6
 23 45  1  0
 24 46  1  1
 25 47  1  0
 27 48  1  0
 28 49  1  0
 29 50  1  0
M  END
>  <meeko>  (14) 
{"is_sidechain": [false], "free_energy": -6.468, "intermolecular_energy": -8.997, "internal_energy": -0.496}

$$$$
puerarin_run02
     RDKit          3D

 50 53  0  0  0  0  0  0  0  0999 V2000
   27.8470   -7.6770   -5.7050 O   0  0  0  0  0  0  0  0  0  0  0  0
   28.0670   -8.7010   -6.3390 C   0  0  0  0  0  0  0  0  0  0  0  0
   27.4160   -9.9990   -6.0080 C   0  0  0  0  0  0  0  0  0  0  0  0
   26.5050  -10.1440   -4.8610 C   0  0  0  0  0  0  0  0  0  0  0  0
   25.1400   -9.8920   -5.0130 C   0  0  0  0  0  0  0  0  0  0  0  0
   24.2770  -10.0300   -3.9260 C   0  0  0  0  0  0  0  0  0  0  0  0
   24.7770  -10.4210   -2.6830 C   0  0  0  0  0  0  0  0  0  0  0  0
   23.9350  -10.5540   -1.6230 O   0  0  0  0  0  0  0  0  0  0  0  0
   26.1400  -10.6740   -2.5290 C   0  0  0  0  0  0  0  0  0  0  0  0
   27.0030  -10.5360   -3.6160 C   0  0  0  0  0  0  0  0  0  0  0  0
   27.7090  -11.0490   -6.7900 C   0  0  0  0  0  0  0  0  0  0  0  0
   28.5490  -11.0600   -7.8770 O   0  0  0  0  0  0  0  0  0  0  0  0
   29.1820   -9.8870   -8.2020 C   0  0  0  0  0  0  0  0  0  0  0  0
   30.0470   -9.9120   -9.2970 C   0  0  0  0  0  0  0  0  0  0  0  0
   30.2620  -11.1940  -10.0770 C   0  0  2  0  0  0  0  0  0  0  0  0
   31.6680  -11.3320  -10.3080 O   0  0  0  0  0  0  0  0  0  0  0  0
   32.0040  -12.5570  -10.9580 C   0  0  2  0  0  0  0  0  0  0  0  0
   33.5260  -12.6300  -11.0410 C   0  0  0  0  0  0  0  0  0  0  0  0
   33.9130  -13.9920  -11.0380 O   0  0  0  0  0  0  0  0  0  0  0  0
   31.3590  -12.6090  -12.3450 C   0  0  1  0  0  0  0  0  0  0  0  0
   31.6400  -13.8680  -12.9480 O   0  0  0  0  0  0  0  0  0  0  0  0
   29.8450  -12.4230  -12.2460 C   0  0  2  0  0  0  0  0  0  0  0  0
   29.3340  -12.2570  -13.5690 O   0  0  0  0  0  0  0  0  0  0  0  0
   29.4880  -11.1960  -11.4040 C   0  0  1  0  0  0  0  0  0  0  0  0
   28.0890  -11.2200  -11.1180 O   0  0  0  0  0  0  0  0  0  0  0  0
   30.7180   -8.7500   -9.6760 C   0  0  0  0  0  0  0  0  0  0  0  0
   31.5670   -8.7520  -10.7410 O   0  0  0  0  0  0  0  0  0  0  0  0
   30.5250   -7.5660   -8.9630 C   0  0  0  0  0  0  0  0  0  0  0  0
   29.6600   -7.5390   -7.8680 C   0  0  0  0  0  0  0  0  0  0  0  0
   28.9890   -8.7050   -7.4900 C   0  0  0  0  0  0  0  0  0  0  0  0
   24.7445   -9.5840   -5.9921 H   0  0  0  0  0  0  0  0  0  0  0  0
   23.2022   -9.8306   -4.0484 H   0  0  0  0  0  0  0  0  0  0  0  0
   24.4620  -10.6120   -0.8080 H   0  0  0  0  0  0  0  0  0  0  0  0
   26.5345  -10.9826   -1.5497 H   0  0  0  0  0  0  0  0  0  0  0  0
   28.0776  -10.7362   -3.4928 H   0  0  0  0  0  0  0  0  0  0  0  0
   27.2250  -12.0029   -6.5334 H   0  0  0  0  0  0  0  0  0  0  0  0
   29.8789  -12.0456   -9.4956 H   0  0  0  0  0  0  0  0  0  0  0  0
   31.6246  -13.4226  -10.3951 H   0  0  0  0  0  0  0  0  0  0  0  0
   33.8702  -12.1488  -11.9684 H   0  0  0  0  0  0  0  0  0  0  0  0
   33.9749  -12.1095  -10.1822 H   0  0  0  0  0  0  0  0  0  0  0  0
   33.1080  -14.5260  -11.1520 H   0  0  0  0  0  0  0  0  0  0  0  0
   31.7744  -11.7948  -12.9569 H   0  0  0  0  0  0  0  0  0  0  0  0
   31.6930  -14.5350  -12.2420 H   0  0  0  0  0  0  0  0  0  0  0  0
   29.4031  -13.3042  -11.7579 H   0  0  0  0  0  0  0  0  0  0  0  0
   29.5230  -11.3420  -13.8400 H   0  0  0  0  0  0  0  0  0  0  0  0
   29.7560  -10.2928  -11.9719 H   0  0  0  0  0  0  0  0  0  0  0  0
   27.9500  -11.8090  -10.3580 H   0  0  0  0  0  0  0  0  0  0  0  0
   31.6860   -7.8400  -11.0550 H   0  0  0  0  0  0  0  0  0  0  0  0
   31.0562   -6.6513   -9.2649 H   0  0  0  0  0  0  0  0  0  0  0  0
   29.5074   -6.6057   -7.3061 H   0  0  0  0  0  0  0  0  0  0  0  0
  1  2  2  0
  2  3  1  0
  3  4  1  0
  4  5  2  0
  5  6  1  0
  6  7  2  0
  7  8  1  0
  7  9  1  0
  9 10  2  0
  3 11  2  0
 11 12  1  0
 12 13  1  0
 13 14  2  0
 14 15  1  0
 15 16  1  0
 16 17  1  0
 17 18  1  0
 18 19  1  0
 17 20  1  0
 20 21  1  0
 20 22  1  0
 22 23  1  0
 22 24  1  0
 24 25  1  0
 14 26  1  0
 26 27  1  0
 26 28  2  0
 28 29  1  0
 29 30  2  0
 30  2  1  0
 10  4  1  0
 30 13  1  0
 24 15  1  0
  5 31  1  0
  6 32  1  0
  8 33  1  0
  9 34  1  0
 10 35  1  0
 11 36  1  0
 15 37  1  1
 17 38  1  1
 18 39  1  0
 18 40  1  0
 19 41  1  0
 20 42  1  6
 21 43  1  0
 22 44  1  1
 23 45  1  0
 24 46  1  6
 25 47  1  0
 27 48  1  0
 28 49  1  0
 29 50  1  0
M  END
>  <meeko>  (15) 
{"is_sidechain": [false], "free_energy": -6.46, "intermolecular_energy": -8.325, "internal_energy": -1.158}

$$$$
puerarin_run02
     RDKit          3D

 50 53  0  0  0  0  0  0  0  0999 V2000
   29.9570   -8.5550   -9.8250 O   0  0  0  0  0  0  0  0  0  0  0  0
   29.3200   -9.1230   -8.9470 C   0  0  0  0  0  0  0  0  0  0  0  0
   29.5600  -10.5460   -8.5800 C   0  0  0  0  0  0  0  0  0  0  0  0
   30.5460  -11.3770   -9.2890 C   0  0  0  0  0  0  0  0  0  0  0  0
   30.2050  -11.9980  -10.4920 C   0  0  0  0  0  0  0  0  0  0  0  0
   31.1400  -12.7860  -11.1630 C   0  0  0  0  0  0  0  0  0  0  0  0
   32.4190  -12.9550  -10.6330 C   0  0  0  0  0  0  0  0  0  0  0  0
   33.3310  -13.7250  -11.2880 O   0  0  0  0  0  0  0  0  0  0  0  0
   32.7630  -12.3360   -9.4310 C   0  0  0  0  0  0  0  0  0  0  0  0
   31.8280  -11.5480   -8.7600 C   0  0  0  0  0  0  0  0  0  0  0  0
   28.8240  -11.0560   -7.5810 C   0  0  0  0  0  0  0  0  0  0  0  0
   27.8630  -10.4010   -6.8490 O   0  0  0  0  0  0  0  0  0  0  0  0
   27.5990   -9.0950   -7.1700 C   0  0  0  0  0  0  0  0  0  0  0  0
   26.6090   -8.4440   -6.4310 C   0  0  0  0  0  0  0  0  0  0  0  0
   25.8710   -9.1740   -5.3270 C   0  0  2  0  0  0  0  0  0  0  0  0
   26.8270   -9.5190   -4.3190 O   0  0  0  0  0  0  0  0  0  0  0  0
   26.2300  -10.1340   -3.1770 C   0  0  2  0  0  0  0  0  0  0  0  0
   27.3310  -10.3440   -2.1420 C   0  0  0  0  0  0  0  0  0  0  0  0
   28.5200   -9.7420   -2.6210 O   0  0  0  0  0  0  0  0  0  0  0  0
   25.5700  -11.4550   -3.5780 C   0  0  1  0  0  0  0  0  0  0  0  0
   24.9140  -12.0170   -2.4460 O   0  0  0  0  0  0  0  0  0  0  0  0
   24.5490  -11.2350   -4.6950 C   0  0  2  0  0  0  0  0  0  0  0  0
   24.1380  -12.5150   -5.1750 O   0  0  0  0  0  0  0  0  0  0  0  0
   25.1510  -10.4280   -5.8480 C   0  0  1  0  0  0  0  0  0  0  0  0
   24.1020  -10.0200   -6.7270 O   0  0  0  0  0  0  0  0  0  0  0  0
   26.2970   -7.1140   -6.7120 C   0  0  0  0  0  0  0  0  0  0  0  0
   25.3350   -6.4600   -6.0040 O   0  0  0  0  0  0  0  0  0  0  0  0
   26.9740   -6.4350   -7.7260 C   0  0  0  0  0  0  0  0  0  0  0  0
   27.9640   -7.0840   -8.4650 C   0  0  0  0  0  0  0  0  0  0  0  0
   28.2740   -8.4170   -8.1830 C   0  0  0  0  0  0  0  0  0  0  0  0
   29.1968  -11.8655  -10.9115 H   0  0  0  0  0  0  0  0  0  0  0  0
   30.8686  -13.2744  -12.1105 H   0  0  0  0  0  0  0  0  0  0  0  0
   34.1560  -13.7410  -10.7730 H   0  0  0  0  0  0  0  0  0  0  0  0
   33.7715  -12.4694   -9.0125 H   0  0  0  0  0  0  0  0  0  0  0  0
   32.1004  -11.0602   -7.8125 H   0  0  0  0  0  0  0  0  0  0  0  0
   29.0091  -12.1086   -7.3206 H   0  0  0  0  0  0  0  0  0  0  0  0
   25.0897   -8.5193   -4.9135 H   0  0  0  0  0  0  0  0  0  0  0  0
   25.4404   -9.4985   -2.7496 H   0  0  0  0  0  0  0  0  0  0  0  0
   27.0378   -9.8792   -1.1891 H   0  0  0  0  0  0  0  0  0  0  0  0
   27.4932  -11.4195   -1.9778 H   0  0  0  0  0  0  0  0  0  0  0  0
   28.4840   -9.7510   -3.5920 H   0  0  0  0  0  0  0  0  0  0  0  0
   26.3494  -12.1399   -3.9432 H   0  0  0  0  0  0  0  0  0  0  0  0
   25.5900  -12.4250   -1.8770 H   0  0  0  0  0  0  0  0  0  0  0  0
   23.6944  -10.6675   -4.2980 H   0  0  0  0  0  0  0  0  0  0  0  0
   23.3470  -12.7730   -4.6700 H   0  0  0  0  0  0  0  0  0  0  0  0
   25.8793  -11.0624   -6.3745 H   0  0  0  0  0  0  0  0  0  0  0  0
   24.1890  -10.5260   -7.5520 H   0  0  0  0  0  0  0  0  0  0  0  0
   24.5540   -7.0330   -5.9220 H   0  0  0  0  0  0  0  0  0  0  0  0
   26.7266   -5.3854   -7.9433 H   0  0  0  0  0  0  0  0  0  0  0  0
   28.4972   -6.5493   -9.2649 H   0  0  0  0  0  0  0  0  0  0  0  0
  1  2  2  0
  2  3  1  0
  3  4  1  0
  4  5  2  0
  5  6  1  0
  6  7  2  0
  7  8  1  0
  7  9  1  0
  9 10  2  0
  3 11  2  0
 11 12  1  0
 12 13  1  0
 13 14  2  0
 14 15  1  0
 15 16  1  0
 16 17  1  0
 17 18  1  0
 18 19  1  0
 17 20  1  0
 20 21  1  0
 20 22  1  0
 22 23  1  0
 22 24  1  0
 24 25  1  0
 14 26  1  0
 26 27  1  0
 26 28  2  0
 28 29  1  0
 29 30  2  0
 30  2  1  0
 10  4  1  0
 30 13  1  0
 24 15  1  0
  5 31  1  0
  6 32  1  0
  8 33  1  0
  9 34  1  0
 10 35  1  0
 11 36  1  0
 15 37  1  1
 17 38  1  1
 18 39  1  0
 18 40  1  0
 19 41  1  0
 20 42  1  6
 21 43  1  0
 22 44  1  1
 23 45  1  0
 24 46  1  6
 25 47  1  0
 27 48  1  0
 28 49  1  0
 29 50  1  0
M  END
>  <meeko>  (16) 
{"is_sidechain": [false], "free_energy": -6.459, "intermolecular_energy": -9.109, "internal_energy": -0.374}

$$$$
puerarin_run02
     RDKit          3D

 50 53  0  0  0  0  0  0  0  0999 V2000
   31.4790   -9.9300   -9.8100 O   0  0  0  0  0  0  0  0  0  0  0  0
   30.3130  -10.0250   -9.4480 C   0  0  0  0  0  0  0  0  0  0  0  0
   29.2520  -10.6030  -10.3180 C   0  0  0  0  0  0  0  0  0  0  0  0
   29.5280  -11.0480  -11.6930 C   0  0  0  0  0  0  0  0  0  0  0  0
   29.4520  -10.1420  -12.7520 C   0  0  0  0  0  0  0  0  0  0  0  0
   29.7130  -10.5640  -14.0560 C   0  0  0  0  0  0  0  0  0  0  0  0
   30.0530  -11.8950  -14.3030 C   0  0  0  0  0  0  0  0  0  0  0  0
   30.3070  -12.3070  -15.5740 O   0  0  0  0  0  0  0  0  0  0  0  0
   30.1300  -12.8020  -13.2460 C   0  0  0  0  0  0  0  0  0  0  0  0
   29.8680  -12.3800  -11.9430 C   0  0  0  0  0  0  0  0  0  0  0  0
   28.0150  -10.6850   -9.8040 C   0  0  0  0  0  0  0  0  0  0  0  0
   27.6160  -10.2950   -8.5490 O   0  0  0  0  0  0  0  0  0  0  0  0
   28.5610   -9.7410   -7.7250 C   0  0  0  0  0  0  0  0  0  0  0  0
   28.1420   -9.3310   -6.4580 C   0  0  0  0  0  0  0  0  0  0  0  0
   26.6960   -9.5020   -6.0360 C   0  0  2  0  0  0  0  0  0  0  0  0
   26.2560   -8.2590   -5.4770 O   0  0  0  0  0  0  0  0  0  0  0  0
   24.8730   -8.2690   -5.1250 C   0  0  2  0  0  0  0  0  0  0  0  0
   24.5110   -6.8640   -4.6530 C   0  0  0  0  0  0  0  0  0  0  0  0
   23.0990   -6.7510   -4.6180 O   0  0  0  0  0  0  0  0  0  0  0  0
   24.6160   -9.3150   -4.0380 C   0  0  1  0  0  0  0  0  0  0  0  0
   23.2210   -9.3660   -3.7540 O   0  0  0  0  0  0  0  0  0  0  0  0
   25.0900  -10.6960   -4.4910 C   0  0  2  0  0  0  0  0  0  0  0  0
   25.0310  -11.5730   -3.3650 O   0  0  0  0  0  0  0  0  0  0  0  0
   26.5240  -10.6460   -5.0240 C   0  0  1  0  0  0  0  0  0  0  0  0
   26.8200  -11.8810   -5.6770 O   0  0  0  0  0  0  0  0  0  0  0  0
   29.0580   -8.7610   -5.5750 C   0  0  0  0  0  0  0  0  0  0  0  0
   28.6710   -8.3540   -4.3350 O   0  0  0  0  0  0  0  0  0  0  0  0
   30.3910   -8.6020   -5.9560 C   0  0  0  0  0  0  0  0  0  0  0  0
   30.8120   -9.0110   -7.2220 C   0  0  0  0  0  0  0  0  0  0  0  0
   29.8920   -9.5810   -8.1060 C   0  0  0  0  0  0  0  0  0  0  0  0
   29.1856   -9.0925  -12.5580 H   0  0  0  0  0  0  0  0  0  0  0  0
   29.6509   -9.8482  -14.8889 H   0  0  0  0  0  0  0  0  0  0  0  0
   30.8110  -13.1390  -15.5410 H   0  0  0  0  0  0  0  0  0  0  0  0
   30.3976  -13.8511  -13.4405 H   0  0  0  0  0  0  0  0  0  0  0  0
   29.9291  -13.0967  -11.1108 H   0  0  0  0  0  0  0  0  0  0  0  0
   27.2383  -11.1096  -10.4571 H   0  0  0  0  0  0  0  0  0  0  0  0
   26.0878   -9.7709   -6.9122 H   0  0  0  0  0  0  0  0  0  0  0  0
   24.2449   -8.5412   -5.9861 H   0  0  0  0  0  0  0  0  0  0  0  0
   24.9219   -6.6932   -3.6470 H   0  0  0  0  0  0  0  0  0  0  0  0
   24.9319   -6.1155   -5.3404 H   0  0  0  0  0  0  0  0  0  0  0  0
   22.8180   -6.3230   -5.4440 H   0  0  0  0  0  0  0  0  0  0  0  0
   25.1763   -9.0293   -3.1356 H   0  0  0  0  0  0  0  0  0  0  0  0
   22.9050   -8.4540   -3.6300 H   0  0  0  0  0  0  0  0  0  0  0  0
   24.4423  -11.0523   -5.3056 H   0  0  0  0  0  0  0  0  0  0  0  0
   25.7220  -12.2470   -3.4880 H   0  0  0  0  0  0  0  0  0  0  0  0
   27.2055  -10.4770   -4.1772 H   0  0  0  0  0  0  0  0  0  0  0  0
   27.7840  -11.9990   -5.6710 H   0  0  0  0  0  0  0  0  0  0  0  0
   28.6420   -7.3830   -4.3110 H   0  0  0  0  0  0  0  0  0  0  0  0
   31.1117   -8.1531   -5.2566 H   0  0  0  0  0  0  0  0  0  0  0  0
   31.8627   -8.8854   -7.5226 H   0  0  0  0  0  0  0  0  0  0  0  0
  1  2  2  0
  2  3  1  0
  3  4  1  0
  4  5  2  0
  5  6  1  0
  6  7  2  0
  7  8  1  0
  7  9  1  0
  9 10  2  0
  3 11  2  0
 11 12  1  0
 12 13  1  0
 13 14  2  0
 14 15  1  0
 15 16  1  0
 16 17  1  0
 17 18  1  0
 18 19  1  0
 17 20  1  0
 20 21  1  0
 20 22  1  0
 22 23  1  0
 22 24  1  0
 24 25  1  0
 14 26  1  0
 26 27  1  0
 26 28  2  0
 28 29  1  0
 29 30  2  0
 30  2  1  0
 10  4  1  0
 30 13  1  0
 24 15  1  0
  5 31  1  0
  6 32  1  0
  8 33  1  0
  9 34  1  0
 10 35  1  0
 11 36  1  0
 15 37  1  6
 17 38  1  6
 18 39  1  0
 18 40  1  0
 19 41  1  0
 20 42  1  1
 21 43  1  0
 22 44  1  6
 23 45  1  0
 24 46  1  1
 25 47  1  0
 27 48  1  0
 28 49  1  0
 29 50  1  0
M  END
>  <meeko>  (17) 
{"is_sidechain": [false], "free_energy": -6.288, "intermolecular_energy": -8.141, "internal_energy": -1.11}

$$$$
puerarin_run02
     RDKit          3D

 50 53  0  0  0  0  0  0  0  0999 V2000
   26.3430   -6.6920   -5.1980 O   0  0  0  0  0  0  0  0  0  0  0  0
   26.2630   -7.3700   -6.2140 C   0  0  0  0  0  0  0  0  0  0  0  0
   25.9010   -8.8140   -6.1820 C   0  0  0  0  0  0  0  0  0  0  0  0
   25.6680   -9.5320   -4.9190 C   0  0  0  0  0  0  0  0  0  0  0  0
   24.3690   -9.6930   -4.4320 C   0  0  0  0  0  0  0  0  0  0  0  0
   24.1490  -10.3730   -3.2350 C   0  0  0  0  0  0  0  0  0  0  0  0
   25.2280  -10.8950   -2.5200 C   0  0  0  0  0  0  0  0  0  0  0  0
   25.0130  -11.5580   -1.3520 O   0  0  0  0  0  0  0  0  0  0  0  0
   26.5270  -10.7360   -3.0040 C   0  0  0  0  0  0  0  0  0  0  0  0
   26.7470  -10.0560   -4.2020 C   0  0  0  0  0  0  0  0  0  0  0  0
   25.8130   -9.4510   -7.3600 C   0  0  0  0  0  0  0  0  0  0  0  0
   26.0180   -8.9120   -8.6070 O   0  0  0  0  0  0  0  0  0  0  0  0
   26.3710   -7.5890   -8.6760 C   0  0  0  0  0  0  0  0  0  0  0  0
   26.5950   -7.0540   -9.9460 C   0  0  0  0  0  0  0  0  0  0  0  0
   26.4480   -7.9210  -11.1810 C   0  0  2  0  0  0  0  0  0  0  0  0
   27.5850   -7.6830  -12.0170 O   0  0  0  0  0  0  0  0  0  0  0  0
   27.6050   -8.5170  -13.1750 C   0  0  2  0  0  0  0  0  0  0  0  0
   28.9130   -8.2460  -13.9130 C   0  0  0  0  0  0  0  0  0  0  0  0
   29.3340   -9.4450  -14.5380 O   0  0  0  0  0  0  0  0  0  0  0  0
   26.3880   -8.2230  -14.0540 C   0  0  1  0  0  0  0  0  0  0  0  0
   26.3810   -9.1160  -15.1640 O   0  0  0  0  0  0  0  0  0  0  0  0
   25.0910   -8.3940  -13.2610 C   0  0  2  0  0  0  0  0  0  0  0  0
   24.0170   -7.8940  -14.0590 O   0  0  0  0  0  0  0  0  0  0  0  0
   25.1440   -7.6270  -11.9370 C   0  0  1  0  0  0  0  0  0  0  0  0
   24.0420   -8.0310  -11.1230 O   0  0  0  0  0  0  0  0  0  0  0  0
   26.9570   -5.7140  -10.0800 C   0  0  0  0  0  0  0  0  0  0  0  0
   27.1800   -5.1720  -11.3090 O   0  0  0  0  0  0  0  0  0  0  0  0
   27.0930   -4.9090   -8.9480 C   0  0  0  0  0  0  0  0  0  0  0  0
   26.8690   -5.4420   -7.6770 C   0  0  0  0  0  0  0  0  0  0  0  0
   26.5080   -6.7850   -7.5460 C   0  0  0  0  0  0  0  0  0  0  0  0
   23.5174   -9.2823   -4.9942 H   0  0  0  0  0  0  0  0  0  0  0  0
   23.1247  -10.4982   -2.8540 H   0  0  0  0  0  0  0  0  0  0  0  0
   24.1120  -11.9240   -1.3580 H   0  0  0  0  0  0  0  0  0  0  0  0
   27.3778  -11.1470   -2.4408 H   0  0  0  0  0  0  0  0  0  0  0  0
   27.7715   -9.9321   -4.5829 H   0  0  0  0  0  0  0  0  0  0  0  0
   25.5486  -10.5181   -7.3232 H   0  0  0  0  0  0  0  0  0  0  0  0
   26.3999   -8.9788  -10.8831 H   0  0  0  0  0  0  0  0  0  0  0  0
   27.5520   -9.5807  -12.8998 H   0  0  0  0  0  0  0  0  0  0  0  0
   28.7553   -7.4669  -14.6734 H   0  0  0  0  0  0  0  0  0  0  0  0
   29.6806   -7.9011  -13.2046 H   0  0  0  0  0  0  0  0  0  0  0  0
   30.3060   -9.4380  -14.5620 H   0  0  0  0  0  0  0  0  0  0  0  0
   26.4519   -7.1824  -14.4048 H   0  0  0  0  0  0  0  0  0  0  0  0
   25.6180   -9.7110  -15.0670 H   0  0  0  0  0  0  0  0  0  0  0  0
   24.9466   -9.4589  -13.0262 H   0  0  0  0  0  0  0  0  0  0  0  0
   24.3920   -7.6320  -14.9170 H   0  0  0  0  0  0  0  0  0  0  0  0
   25.0965   -6.5499  -12.1550 H   0  0  0  0  0  0  0  0  0  0  0  0
   23.4290   -7.2800  -11.0550 H   0  0  0  0  0  0  0  0  0  0  0  0
   28.1350   -5.1690  -11.4880 H   0  0  0  0  0  0  0  0  0  0  0  0
   27.3774   -3.8520   -9.0574 H   0  0  0  0  0  0  0  0  0  0  0  0
   26.9762   -4.8082   -6.7844 H   0  0  0  0  0  0  0  0  0  0  0  0
  1  2  2  0
  2  3  1  0
  3  4  1  0
  4  5  2  0
  5  6  1  0
  6  7  2  0
  7  8  1  0
  7  9  1  0
  9 10  2  0
  3 11  2  0
 11 12  1  0
 12 13  1  0
 13 14  2  0
 14 15  1  0
 15 16  1  0
 16 17  1  0
 17 18  1  0
 18 19  1  0
 17 20  1  0
 20 21  1  0
 20 22  1  0
 22 23  1  0
 22 24  1  0
 24 25  1  0
 14 26  1  0
 26 27  1  0
 26 28  2  0
 28 29  1  0
 29 30  2  0
 30  2  1  0
 10  4  1  0
 30 13  1  0
 24 15  1  0
  5 31  1  0
  6 32  1  0
  8 33  1  0
  9 34  1  0
 10 35  1  0
 11 36  1  0
 15 37  1  1
 17 38  1  1
 18 39  1  0
 18 40  1  0
 19 41  1  0
 20 42  1  6
 21 43  1  0
 22 44  1  1
 23 45  1  0
 24 46  1  6
 25 47  1  0
 27 48  1  0
 28 49  1  0
 29 50  1  0
M  END
>  <meeko>  (18) 
{"is_sidechain": [false], "free_energy": -6.166, "intermolecular_energy": -7.938, "internal_energy": -1.148}

$$$$
puerarin_run02
     RDKit          3D

 50 53  0  0  0  0  0  0  0  0999 V2000
   25.9380   -9.0150   -6.9770 O   0  0  0  0  0  0  0  0  0  0  0  0
   26.9210   -8.9200   -6.2540 C   0  0  0  0  0  0  0  0  0  0  0  0
   27.3230   -9.9960   -5.3070 C   0  0  0  0  0  0  0  0  0  0  0  0
   26.5290  -11.2240   -5.1410 C   0  0  0  0  0  0  0  0  0  0  0  0
   26.7320  -12.3110   -5.9930 C   0  0  0  0  0  0  0  0  0  0  0  0
   25.9790  -13.4750   -5.8350 C   0  0  0  0  0  0  0  0  0  0  0  0
   25.0210  -13.5540   -4.8240 C   0  0  0  0  0  0  0  0  0  0  0  0
   24.2860  -14.6890   -4.6700 O   0  0  0  0  0  0  0  0  0  0  0  0
   24.8170  -12.4700   -3.9710 C   0  0  0  0  0  0  0  0  0  0  0  0
   25.5690  -11.3060   -4.1290 C   0  0  0  0  0  0  0  0  0  0  0  0
   28.4370   -9.7960   -4.5870 C   0  0  0  0  0  0  0  0  0  0  0  0
   29.2600   -8.6970   -4.6290 O   0  0  0  0  0  0  0  0  0  0  0  0
   28.9130   -7.6760   -5.4760 C   0  0  0  0  0  0  0  0  0  0  0  0
   29.7460   -6.5560   -5.5000 C   0  0  0  0  0  0  0  0  0  0  0  0
   30.9760   -6.4950   -4.6150 C   0  0  2  0  0  0  0  0  0  0  0  0
   31.0600   -5.1710   -4.0780 O   0  0  0  0  0  0  0  0  0  0  0  0
   32.1340   -5.0170   -3.1500 C   0  0  2  0  0  0  0  0  0  0  0  0
   32.0420   -3.6080   -2.5730 C   0  0  0  0  0  0  0  0  0  0  0  0
   32.4980   -3.6400   -1.2320 O   0  0  0  0  0  0  0  0  0  0  0  0
   33.4720   -5.2540   -3.8530 C   0  0  1  0  0  0  0  0  0  0  0  0
   34.5270   -5.1740   -2.8990 O   0  0  0  0  0  0  0  0  0  0  0  0
   33.4990   -6.6300   -4.5200 C   0  0  2  0  0  0  0  0  0  0  0  0
   34.6670   -6.7020   -5.3370 O   0  0  0  0  0  0  0  0  0  0  0  0
   32.2560   -6.8540   -5.3850 C   0  0  1  0  0  0  0  0  0  0  0  0
   32.1930   -8.2300   -5.7600 O   0  0  0  0  0  0  0  0  0  0  0  0
   29.4450   -5.4860   -6.3410 C   0  0  0  0  0  0  0  0  0  0  0  0
   30.2440   -4.3830   -6.3800 O   0  0  0  0  0  0  0  0  0  0  0  0
   28.3150   -5.5340   -7.1590 C   0  0  0  0  0  0  0  0  0  0  0  0
   27.4820   -6.6540   -7.1380 C   0  0  0  0  0  0  0  0  0  0  0  0
   27.7850   -7.7250   -6.2920 C   0  0  0  0  0  0  0  0  0  0  0  0
   27.4871  -12.2498   -6.7905 H   0  0  0  0  0  0  0  0  0  0  0  0
   26.1407  -14.3303   -6.5076 H   0  0  0  0  0  0  0  0  0  0  0  0
   24.3790  -15.2350   -5.4700 H   0  0  0  0  0  0  0  0  0  0  0  0
   24.0625  -12.5329   -3.1730 H   0  0  0  0  0  0  0  0  0  0  0  0
   25.4061  -10.4513   -3.4560 H   0  0  0  0  0  0  0  0  0  0  0  0
   28.7217  -10.5970   -3.8889 H   0  0  0  0  0  0  0  0  0  0  0  0
   30.8840   -7.2361   -3.8074 H   0  0  0  0  0  0  0  0  0  0  0  0
   32.0649   -5.7532   -2.3356 H   0  0  0  0  0  0  0  0  0  0  0  0
   32.6705   -2.9241   -3.1623 H   0  0  0  0  0  0  0  0  0  0  0  0
   31.0012   -3.2537   -2.6085 H   0  0  0  0  0  0  0  0  0  0  0  0
   32.8440   -2.7570   -1.0180 H   0  0  0  0  0  0  0  0  0  0  0  0
   33.6021   -4.4841   -4.6278 H   0  0  0  0  0  0  0  0  0  0  0  0
   34.1280   -5.1130   -2.0140 H   0  0  0  0  0  0  0  0  0  0  0  0
   33.5115   -7.4086   -3.7431 H   0  0  0  0  0  0  0  0  0  0  0  0
   34.5180   -7.4040   -5.9950 H   0  0  0  0  0  0  0  0  0  0  0  0
   32.3282   -6.2088   -6.2730 H   0  0  0  0  0  0  0  0  0  0  0  0
   32.5410   -8.7570   -5.0220 H   0  0  0  0  0  0  0  0  0  0  0  0
   30.4530   -4.1080   -5.4710 H   0  0  0  0  0  0  0  0  0  0  0  0
   28.0804   -4.6877   -7.8214 H   0  0  0  0  0  0  0  0  0  0  0  0
   26.5922   -6.6937   -7.7835 H   0  0  0  0  0  0  0  0  0  0  0  0
  1  2  2  0
  2  3  1  0
  3  4  1  0
  4  5  2  0
  5  6  1  0
  6  7  2  0
  7  8  1  0
  7  9  1  0
  9 10  2  0
  3 11  2  0
 11 12  1  0
 12 13  1  0
 13 14  2  0
 14 15  1  0
 15 16  1  0
 16 17  1  0
 17 18  1  0
 18 19  1  0
 17 20  1  0
 20 21  1  0
 20 22  1  0
 22 23  1  0
 22 24  1  0
 24 25  1  0
 14 26  1  0
 26 27  1  0
 26 28  2  0
 28 29  1  0
 29 30  2  0
 30  2  1  0
 10  4  1  0
 30 13  1  0
 24 15  1  0
  5 31  1  0
  6 32  1  0
  8 33  1  0
  9 34  1  0
 10 35  1  0
 11 36  1  0
 15 37  1  1
 17 38  1  1
 18 39  1  0
 18 40  1  0
 19 41  1  0
 20 42  1  6
 21 43  1  0
 22 44  1  1
 23 45  1  0
 24 46  1  6
 25 47  1  0
 27 48  1  0
 28 49  1  0
 29 50  1  0
M  END
>  <meeko>  (19) 
{"is_sidechain": [false], "free_energy": -6.164, "intermolecular_energy": -7.949, "internal_energy": -1.134}

$$$$
puerarin_run02
     RDKit          3D

 50 53  0  0  0  0  0  0  0  0999 V2000
   25.7030  -10.5690   -7.7700 O   0  0  0  0  0  0  0  0  0  0  0  0
   26.9140  -10.6400   -7.5990 C   0  0  0  0  0  0  0  0  0  0  0  0
   27.5160  -10.9020   -6.2630 C   0  0  0  0  0  0  0  0  0  0  0  0
   26.6940  -11.0410   -5.0510 C   0  0  0  0  0  0  0  0  0  0  0  0
   25.9150  -12.1840   -4.8580 C   0  0  0  0  0  0  0  0  0  0  0  0
   25.1360  -12.3150   -3.7080 C   0  0  0  0  0  0  0  0  0  0  0  0
   25.1330  -11.3020   -2.7480 C   0  0  0  0  0  0  0  0  0  0  0  0
   24.3720  -11.4300   -1.6270 O   0  0  0  0  0  0  0  0  0  0  0  0
   25.9100  -10.1600   -2.9380 C   0  0  0  0  0  0  0  0  0  0  0  0
   26.6890  -10.0290   -4.0880 C   0  0  0  0  0  0  0  0  0  0  0  0
   28.8530  -10.9900   -6.1990 C   0  0  0  0  0  0  0  0  0  0  0  0
   29.7390  -10.8660   -7.2420 O   0  0  0  0  0  0  0  0  0  0  0  0
   29.2230  -10.6050   -8.4860 C   0  0  0  0  0  0  0  0  0  0  0  0
   30.1310  -10.4630   -9.5360 C   0  0  0  0  0  0  0  0  0  0  0  0
   31.6200  -10.5960   -9.2860 C   0  0  2  0  0  0  0  0  0  0  0  0
   32.2740   -9.5280   -9.9800 O   0  0  0  0  0  0  0  0  0  0  0  0
   33.6820   -9.4930   -9.7430 C   0  0  2  0  0  0  0  0  0  0  0  0
   34.2340   -8.2540  -10.4410 C   0  0  0  0  0  0  0  0  0  0  0  0
   35.3780   -7.8120   -9.7340 O   0  0  0  0  0  0  0  0  0  0  0  0
   34.3330  -10.7750  -10.2670 C   0  0  1  0  0  0  0  0  0  0  0  0
   35.7230  -10.7590   -9.9540 O   0  0  0  0  0  0  0  0  0  0  0  0
   33.6870  -12.0090   -9.6360 C   0  0  2  0  0  0  0  0  0  0  0  0
   34.1760  -13.1620  -10.3220 O   0  0  0  0  0  0  0  0  0  0  0  0
   32.1620  -11.9580   -9.7480 C   0  0  1  0  0  0  0  0  0  0  0  0
   31.6010  -12.9760   -8.9190 O   0  0  0  0  0  0  0  0  0  0  0  0
   29.6660  -10.1980  -10.8230 C   0  0  0  0  0  0  0  0  0  0  0  0
   30.5340  -10.0560  -11.8630 O   0  0  0  0  0  0  0  0  0  0  0  0
   28.2960  -10.0750  -11.0620 C   0  0  0  0  0  0  0  0  0  0  0  0
   27.3870  -10.2170  -10.0130 C   0  0  0  0  0  0  0  0  0  0  0  0
   27.8550  -10.4820   -8.7230 C   0  0  0  0  0  0  0  0  0  0  0  0
   25.9156  -12.9827   -5.6143 H   0  0  0  0  0  0  0  0  0  0  0  0
   24.5242  -13.2167   -3.5579 H   0  0  0  0  0  0  0  0  0  0  0  0
   23.9420  -12.3020   -1.6370 H   0  0  0  0  0  0  0  0  0  0  0  0
   25.9088   -9.3620   -2.1809 H   0  0  0  0  0  0  0  0  0  0  0  0
   27.3006   -9.1269   -4.2367 H   0  0  0  0  0  0  0  0  0  0  0  0
   29.2861  -11.1818   -5.2062 H   0  0  0  0  0  0  0  0  0  0  0  0
   31.8167  -10.5363   -8.2054 H   0  0  0  0  0  0  0  0  0  0  0  0
   33.9032   -9.4373   -8.6669 H   0  0  0  0  0  0  0  0  0  0  0  0
   34.5109   -8.5036  -11.4759 H   0  0  0  0  0  0  0  0  0  0  0  0
   33.4722   -7.4607  -10.4587 H   0  0  0  0  0  0  0  0  0  0  0  0
   35.3830   -8.2620   -8.8720 H   0  0  0  0  0  0  0  0  0  0  0  0
   34.1903  -10.8219  -11.3567 H   0  0  0  0  0  0  0  0  0  0  0  0
   36.0410   -9.8440  -10.0420 H   0  0  0  0  0  0  0  0  0  0  0  0
   33.9435  -12.0454   -8.5669 H   0  0  0  0  0  0  0  0  0  0  0  0
   35.0060  -13.4270   -9.8890 H   0  0  0  0  0  0  0  0  0  0  0  0
   31.8848  -12.1123  -10.8013 H   0  0  0  0  0  0  0  0  0  0  0  0
   30.8880  -13.4090   -9.4180 H   0  0  0  0  0  0  0  0  0  0  0  0
   30.5140  -10.8600  -12.4080 H   0  0  0  0  0  0  0  0  0  0  0  0
   27.9326   -9.8658  -12.0789 H   0  0  0  0  0  0  0  0  0  0  0  0
   26.3073  -10.1209  -10.2004 H   0  0  0  0  0  0  0  0  0  0  0  0
  1  2  2  0
  2  3  1  0
  3  4  1  0
  4  5  2  0
  5  6  1  0
  6  7  2  0
  7  8  1  0
  7  9  1  0
  9 10  2  0
  3 11  2  0
 11 12  1  0
 12 13  1  0
 13 14  2  0
 14 15  1  0
 15 16  1  0
 16 17  1  0
 17 18  1  0
 18 19  1  0
 17 20  1  0
 20 21  1  0
 20 22  1  0
 22 23  1  0
 22 24  1  0
 24 25  1  0
 14 26  1  0
 26 27  1  0
 26 28  2  0
 28 29  1  0
 29 30  2  0
 30  2  1  0
 10  4  1  0
 30 13  1  0
 24 15  1  0
  5 31  1  0
  6 32  1  0
  8 33  1  0
  9 34  1  0
 10 35  1  0
 11 36  1  0
 15 37  1  1
 17 38  1  1
 18 39  1  0
 18 40  1  0
 19 41  1  0
 20 42  1  6
 21 43  1  0
 22 44  1  1
 23 45  1  0
 24 46  1  6
 25 47  1  0
 27 48  1  0
 28 49  1  0
 29 50  1  0
M  END
>  <meeko>  (20) 
{"is_sidechain": [false], "free_energy": -2.562, "intermolecular_energy": -3.131, "internal_energy": -1.087}

$$$$
