linoleate_CID5280450_anion_H
     RDKit          3D

 51 50  0  0  0  0  0  0  0  0999 V2000
   -7.1640    0.1939    0.8917 O   0  0  0  0  0  0  0  0  0  0  0  0
   -5.9910   -0.7625   -0.8072 O   0  0  0  0  0  0  0  0  0  0  0  0
   -1.1817    1.3128   -0.3419 C   0  0  0  0  0  0  0  0  0  0  0  0
   -0.0074    2.1518    0.1723 C   0  0  0  0  0  0  0  0  0  0  0  0
   -2.4780    1.5406    0.4399 C   0  0  0  0  0  0  0  0  0  0  0  0
    1.2956    1.9047   -0.5956 C   0  0  0  0  0  0  0  0  0  0  0  0
   -3.6146    0.6702   -0.1077 C   0  0  0  0  0  0  0  0  0  0  0  0
    2.4561    2.7876   -0.1225 C   0  0  0  0  0  0  0  0  0  0  0  0
   -4.9162    0.8502    0.6735 C   0  0  0  0  0  0  0  0  0  0  0  0
    2.3121   -2.2797   -0.2945 C   0  0  0  0  0  0  0  0  0  0  0  0
    0.8799   -2.6178    0.1306 C   0  0  0  0  0  0  0  0  0  0  0  0
    3.7369    2.5259   -0.8615 C   0  0  0  0  0  0  0  0  0  0  0  0
    3.2196   -2.0881    0.9267 C   0  0  0  0  0  0  0  0  0  0  0  0
   -0.0554   -2.8878   -1.0501 C   0  0  0  0  0  0  0  0  0  0  0  0
    4.6379    1.6049   -0.4884 C   0  0  0  0  0  0  0  0  0  0  0  0
    4.4770    0.7218    0.7144 C   0  0  0  0  0  0  0  0  0  0  0  0
    4.6669   -1.7770    0.6541 C   0  0  0  0  0  0  0  0  0  0  0  0
   -6.0486    0.0065    0.1406 C   0  0  0  0  0  0  0  0  0  0  0  0
    5.2355   -0.5651    0.5576 C   0  0  0  0  0  0  0  0  0  0  0  0
   -1.4605   -3.2928   -0.6321 C   0  0  0  0  0  0  0  0  0  0  0  0
   -1.3600    1.5712   -1.3961 H   0  0  0  0  0  0  0  0  0  0  0  0
   -0.9065    0.2554   -0.2146 H   0  0  0  0  0  0  0  0  0  0  0  0
   -0.2712    3.2157    0.0794 H   0  0  0  0  0  0  0  0  0  0  0  0
    0.1696    1.8587    1.2176 H   0  0  0  0  0  0  0  0  0  0  0  0
   -2.3090    1.2871    1.4969 H   0  0  0  0  0  0  0  0  0  0  0  0
   -2.7667    2.5970    0.3363 H   0  0  0  0  0  0  0  0  0  0  0  0
    1.5831    0.8510   -0.4651 H   0  0  0  0  0  0  0  0  0  0  0  0
    1.1047    2.1553   -1.6495 H   0  0  0  0  0  0  0  0  0  0  0  0
   -3.7930    0.9425   -1.1584 H   0  0  0  0  0  0  0  0  0  0  0  0
   -3.3079   -0.3816   -0.0097 H   0  0  0  0  0  0  0  0  0  0  0  0
    2.1765    3.8412   -0.2696 H   0  0  0  0  0  0  0  0  0  0  0  0
    2.6356    2.5522    0.9369 H   0  0  0  0  0  0  0  0  0  0  0  0
   -4.7362    0.5722    1.7224 H   0  0  0  0  0  0  0  0  0  0  0  0
   -5.2164    1.9036    0.5721 H   0  0  0  0  0  0  0  0  0  0  0  0
    2.7073   -3.1008   -0.9106 H   0  0  0  0  0  0  0  0  0  0  0  0
    2.2942   -1.3408   -0.8673 H   0  0  0  0  0  0  0  0  0  0  0  0
    0.9072   -3.5151    0.7664 H   0  0  0  0  0  0  0  0  0  0  0  0
    0.4840   -1.7419    0.6655 H   0  0  0  0  0  0  0  0  0  0  0  0
    3.9483    3.1238   -1.7603 H   0  0  0  0  0  0  0  0  0  0  0  0
    2.8072   -1.2594    1.5211 H   0  0  0  0  0  0  0  0  0  0  0  0
    3.2256   -3.0627    1.4368 H   0  0  0  0  0  0  0  0  0  0  0  0
   -0.1230   -1.9727   -1.6568 H   0  0  0  0  0  0  0  0  0  0  0  0
    0.3701   -3.7317   -1.6129 H   0  0  0  0  0  0  0  0  0  0  0  0
    5.5460    1.4904   -1.0985 H   0  0  0  0  0  0  0  0  0  0  0  0
    4.8537    1.2530    1.6009 H   0  0  0  0  0  0  0  0  0  0  0  0
    3.4093    0.4818    0.8261 H   0  0  0  0  0  0  0  0  0  0  0  0
    5.3342   -2.6409    0.5186 H   0  0  0  0  0  0  0  0  0  0  0  0
    6.3149   -0.5114    0.3527 H   0  0  0  0  0  0  0  0  0  0  0  0
   -1.5254   -3.3115    0.4658 H   0  0  0  0  0  0  0  0  0  0  0  0
   -2.1850   -2.5669   -1.0299 H   0  0  0  0  0  0  0  0  0  0  0  0
   -1.6874   -4.2929   -1.0299 H   0  0  0  0  0  0  0  0  0  0  0  0
  1 18  1  0
  2 18  2  0
  3  4  1  0
  3  5  1  0
  4  6  1  0
  5  7  1  0
  6  8  1  0
  7  9  1  0
  8 12  1  0
  9 18  1  0
 10 11  1  0
 10 13  1  0
 11 14  1  0
 12 15  2  0
 13 17  1  0
 14 20  1  0
 15 16  1  0
 16 19  1  0
 17 19  2  0
  3 21  1  0
  3 22  1  0
  4 23  1  0
  4 24  1  0
  5 25  1  0
  5 26  1  0
  6 27  1  0
  6 28  1  0
  7 29  1  0
  7 30  1  0
  8 31  1  0
  8 32  1  0
  9 33  1  0
  9 34  1  0
 10 35  1  0
 10 36  1  0
 11 37  1  0
 11 38  1  0
 12 39  1  0
 13 40  1  0
 13 41  1  0
 14 42  1  0
 14 43  1  0
 15 44  1  0
 16 45  1  0
 16 46  1  0
 17 47  1  0
 19 48  1  0
 20 49  1  0
 20 50  1  0
 20 51  1  0
M  CHG  1   1  -1
M  END
