palmitate_CID985_anion_H
     RDKit          3D

 49 48  0  0  0  0  0  0  0  0999 V2000
   -9.5605    0.6695   -0.0838 O   0  0  0  0  0  0  0  0  0  0  0  0
   -8.5332   -1.3534    0.0164 O   0  0  0  0  0  0  0  0  0  0  0  0
    1.7700   -0.4356    0.0582 C   0  0  0  0  0  0  0  0  0  0  0  0
    0.5235    0.4509    0.0830 C   0  0  0  0  0  0  0  0  0  0  0  0
    3.0463    0.4092    0.0877 C   0  0  0  0  0  0  0  0  0  0  0  0
   -0.7911   -0.3346    0.0414 C   0  0  0  0  0  0  0  0  0  0  0  0
    4.2949   -0.4722    0.0265 C   0  0  0  0  0  0  0  0  0  0  0  0
   -2.0721    0.5050   -0.0209 C   0  0  0  0  0  0  0  0  0  0  0  0
    5.6050    0.3187    0.0913 C   0  0  0  0  0  0  0  0  0  0  0  0
   -3.3539   -0.3321   -0.0108 C   0  0  0  0  0  0  0  0  0  0  0  0
    6.8930   -0.5009   -0.0508 C   0  0  0  0  0  0  0  0  0  0  0  0
   -4.5986    0.5561    0.0054 C   0  0  0  0  0  0  0  0  0  0  0  0
    8.1645    0.3517   -0.0404 C   0  0  0  0  0  0  0  0  0  0  0  0
   -5.9165   -0.2275   -0.0233 C   0  0  0  0  0  0  0  0  0  0  0  0
    9.4506   -0.4776   -0.0930 C   0  0  0  0  0  0  0  0  0  0  0  0
   -7.1730    0.6435   -0.0191 C   0  0  0  0  0  0  0  0  0  0  0  0
   10.7192    0.3603   -0.0527 C   0  0  0  0  0  0  0  0  0  0  0  0
   -8.4681   -0.1310   -0.0149 C   0  0  0  0  0  0  0  0  0  0  0  0
    1.7573   -1.0984    0.9360 H   0  0  0  0  0  0  0  0  0  0  0  0
    1.7618   -1.0249   -0.8706 H   0  0  0  0  0  0  0  0  0  0  0  0
    0.5414    1.0496    1.0056 H   0  0  0  0  0  0  0  0  0  0  0  0
    0.5543    1.0747   -0.8225 H   0  0  0  0  0  0  0  0  0  0  0  0
    3.0455    1.0906   -0.7758 H   0  0  0  0  0  0  0  0  0  0  0  0
    3.0665    0.9767    1.0298 H   0  0  0  0  0  0  0  0  0  0  0  0
   -0.7689   -0.9817   -0.8479 H   0  0  0  0  0  0  0  0  0  0  0  0
   -0.8405   -0.8820    0.9942 H   0  0  0  0  0  0  0  0  0  0  0  0
    4.2687   -1.1724    0.8744 H   0  0  0  0  0  0  0  0  0  0  0  0
    4.2777   -0.9907   -0.9435 H   0  0  0  0  0  0  0  0  0  0  0  0
   -2.0894    1.1782    0.8488 H   0  0  0  0  0  0  0  0  0  0  0  0
   -2.0524    1.0538   -0.9740 H   0  0  0  0  0  0  0  0  0  0  0  0
    5.5889    1.0633   -0.7182 H   0  0  0  0  0  0  0  0  0  0  0  0
    5.6397    0.7525    1.1015 H   0  0  0  0  0  0  0  0  0  0  0  0
   -3.3763   -0.9637   -0.9111 H   0  0  0  0  0  0  0  0  0  0  0  0
   -3.3572   -0.9503    0.8990 H   0  0  0  0  0  0  0  0  0  0  0  0
    6.9455   -1.2143    0.7848 H   0  0  0  0  0  0  0  0  0  0  0  0
    6.8495   -1.0045   -1.0278 H   0  0  0  0  0  0  0  0  0  0  0  0
   -4.5776    1.1665    0.9202 H   0  0  0  0  0  0  0  0  0  0  0  0
   -4.5686    1.1676   -0.9085 H   0  0  0  0  0  0  0  0  0  0  0  0
    8.1440    1.0198   -0.9140 H   0  0  0  0  0  0  0  0  0  0  0  0
    8.1750    0.9092    0.9078 H   0  0  0  0  0  0  0  0  0  0  0  0
   -5.9294   -0.8446   -0.9338 H   0  0  0  0  0  0  0  0  0  0  0  0
   -5.9461   -0.8232    0.9009 H   0  0  0  0  0  0  0  0  0  0  0  0
    9.4585   -1.1616    0.7684 H   0  0  0  0  0  0  0  0  0  0  0  0
    9.4491   -1.0134   -1.0537 H   0  0  0  0  0  0  0  0  0  0  0  0
   -7.1487    1.2782    0.8790 H   0  0  0  0  0  0  0  0  0  0  0  0
   -7.1566    1.2229   -0.9540 H   0  0  0  0  0  0  0  0  0  0  0  0
   11.0021    0.5472    0.9937 H   0  0  0  0  0  0  0  0  0  0  0  0
   11.5315   -0.1795   -0.5613 H   0  0  0  0  0  0  0  0  0  0  0  0
   10.5415    1.3193   -0.5613 H   0  0  0  0  0  0  0  0  0  0  0  0
  1 18  1  0
  2 18  2  0
  3  4  1  0
  3  5  1  0
  4  6  1  0
  5  7  1  0
  6  8  1  0
  7  9  1  0
  8 10  1  0
  9 11  1  0
 10 12  1  0
 11 13  1  0
 12 14  1  0
 13 15  1  0
 14 16  1  0
 15 17  1  0
 16 18  1  0
  3 19  1  0
  3 20  1  0
  4 21  1  0
  4 22  1  0
  5 23  1  0
  5 24  1  0
  6 25  1  0
  6 26  1  0
  7 27  1  0
  7 28  1  0
  8 29  1  0
  8 30  1  0
  9 31  1  0
  9 32  1  0
 10 33  1  0
 10 34  1  0
 11 35  1  0
 11 36  1  0
 12 37  1  0
 12 38  1  0
 13 39  1  0
 13 40  1  0
 14 41  1  0
 14 42  1  0
 15 43  1  0
 15 44  1  0
 16 45  1  0
 16 46  1  0
 17 47  1  0
 17 48  1  0
 17 49  1  0
M  CHG  1   1  -1
M  END
