stearate_CID5281_ETKDG_run01_anion_H
     RDKit          3D

 55 54  0  0  0  0  0  0  0  0999 V2000
   -1.3945   -2.3743   -0.2286 O   0  0  0  0  0  0  0  0  0  0  0  0
   -2.4122   -1.4185   -1.9676 O   0  0  0  0  0  0  0  0  0  0  0  0
    0.3697    2.4745    0.4790 C   0  0  0  0  0  0  0  0  0  0  0  0
    1.8357    2.0888    0.7136 C   0  0  0  0  0  0  0  0  0  0  0  0
   -0.5848    1.2855    0.3775 C   0  0  0  0  0  0  0  0  0  0  0  0
    2.4744    1.2491   -0.4001 C   0  0  0  0  0  0  0  0  0  0  0  0
   -2.0561    1.6952    0.2546 C   0  0  0  0  0  0  0  0  0  0  0  0
    2.4733   -0.2503   -0.0854 C   0  0  0  0  0  0  0  0  0  0  0  0
   -2.6492    2.4207    1.4670 C   0  0  0  0  0  0  0  0  0  0  0  0
    3.2242   -1.0924   -1.1223 C   0  0  0  0  0  0  0  0  0  0  0  0
   -2.5198    1.6912    2.8077 C   0  0  0  0  0  0  0  0  0  0  0  0
    2.6726   -1.0459   -2.5512 C   0  0  0  0  0  0  0  0  0  0  0  0
   -3.1883    0.3139    2.8174 C   0  0  0  0  0  0  0  0  0  0  0  0
    1.1844   -1.3729   -2.7043 C   0  0  0  0  0  0  0  0  0  0  0  0
   -3.0967   -0.3362    4.2001 C   0  0  0  0  0  0  0  0  0  0  0  0
    0.8029   -2.7610   -2.1814 C   0  0  0  0  0  0  0  0  0  0  0  0
   -3.8275   -1.6779    4.2879 C   0  0  0  0  0  0  0  0  0  0  0  0
   -0.6782   -3.0695   -2.3894 C   0  0  0  0  0  0  0  0  0  0  0  0
   -3.2205   -2.7602    3.4080 C   0  0  0  0  0  0  0  0  0  0  0  0
   -1.5751   -2.2015   -1.5509 C   0  0  0  0  0  0  0  0  0  0  0  0
    0.0422    3.1088    1.3159 H   0  0  0  0  0  0  0  0  0  0  0  0
    0.3315    2.9928   -0.4905 H   0  0  0  0  0  0  0  0  0  0  0  0
    2.4191    3.0154    0.8188 H   0  0  0  0  0  0  0  0  0  0  0  0
    1.8460    1.4594    1.6157 H   0  0  0  0  0  0  0  0  0  0  0  0
   -0.3122    0.6942   -0.5091 H   0  0  0  0  0  0  0  0  0  0  0  0
   -0.4850    0.7085    1.3087 H   0  0  0  0  0  0  0  0  0  0  0  0
    1.9122    1.4135   -1.3312 H   0  0  0  0  0  0  0  0  0  0  0  0
    3.5229    1.5674   -0.4961 H   0  0  0  0  0  0  0  0  0  0  0  0
   -2.1496    2.3608   -0.6162 H   0  0  0  0  0  0  0  0  0  0  0  0
   -2.6213    0.7560    0.1621 H   0  0  0  0  0  0  0  0  0  0  0  0
    2.9481   -0.4007    0.8953 H   0  0  0  0  0  0  0  0  0  0  0  0
    1.4247   -0.5827   -0.0963 H   0  0  0  0  0  0  0  0  0  0  0  0
   -2.1419    3.3922    1.5607 H   0  0  0  0  0  0  0  0  0  0  0  0
   -3.7289    2.4977    1.2711 H   0  0  0  0  0  0  0  0  0  0  0  0
    4.2658   -0.7399   -1.1519 H   0  0  0  0  0  0  0  0  0  0  0  0
    3.1119   -2.1364   -0.7945 H   0  0  0  0  0  0  0  0  0  0  0  0
   -1.4508    1.5615    3.0324 H   0  0  0  0  0  0  0  0  0  0  0  0
   -3.0316    2.3059    3.5628 H   0  0  0  0  0  0  0  0  0  0  0  0
    2.8369   -0.0313   -2.9431 H   0  0  0  0  0  0  0  0  0  0  0  0
    3.2086   -1.8322   -3.1031 H   0  0  0  0  0  0  0  0  0  0  0  0
   -4.2476    0.4274    2.5437 H   0  0  0  0  0  0  0  0  0  0  0  0
   -2.6677   -0.3310    2.0941 H   0  0  0  0  0  0  0  0  0  0  0  0
    0.6046   -0.6210   -2.1490 H   0  0  0  0  0  0  0  0  0  0  0  0
    0.9618   -1.3624   -3.7815 H   0  0  0  0  0  0  0  0  0  0  0  0
   -2.0356   -0.5004    4.4391 H   0  0  0  0  0  0  0  0  0  0  0  0
   -3.5817    0.3461    4.9136 H   0  0  0  0  0  0  0  0  0  0  0  0
    1.4001   -3.5163   -2.7134 H   0  0  0  0  0  0  0  0  0  0  0  0
    1.0031   -2.7809   -1.0999 H   0  0  0  0  0  0  0  0  0  0  0  0
   -3.7988   -2.0220    5.3323 H   0  0  0  0  0  0  0  0  0  0  0  0
   -4.8544   -1.5101    3.9310 H   0  0  0  0  0  0  0  0  0  0  0  0
   -0.9253   -2.9106   -3.4494 H   0  0  0  0  0  0  0  0  0  0  0  0
   -0.8462   -4.1130   -2.0845 H   0  0  0  0  0  0  0  0  0  0  0  0
   -2.7807   -3.5443    4.0420 H   0  0  0  0  0  0  0  0  0  0  0  0
   -4.0042   -3.1989    2.7730 H   0  0  0  0  0  0  0  0  0  0  0  0
   -2.4375   -2.3201    2.7730 H   0  0  0  0  0  0  0  0  0  0  0  0
  1 20  1  0
  2 20  2  0
  3  4  1  0
  3  5  1  0
  4  6  1  0
  5  7  1  0
  6  8  1  0
  7  9  1  0
  8 10  1  0
  9 11  1  0
 10 12  1  0
 11 13  1  0
 12 14  1  0
 13 15  1  0
 14 16  1  0
 15 17  1  0
 16 18  1  0
 17 19  1  0
 18 20  1  0
  3 21  1  0
  3 22  1  0
  4 23  1  0
  4 24  1  0
  5 25  1  0
  5 26  1  0
  6 27  1  0
  6 28  1  0
  7 29  1  0
  7 30  1  0
  8 31  1  0
  8 32  1  0
  9 33  1  0
  9 34  1  0
 10 35  1  0
 10 36  1  0
 11 37  1  0
 11 38  1  0
 12 39  1  0
 12 40  1  0
 13 41  1  0
 13 42  1  0
 14 43  1  0
 14 44  1  0
 15 45  1  0
 15 46  1  0
 16 47  1  0
 16 48  1  0
 17 49  1  0
 17 50  1  0
 18 51  1  0
 18 52  1  0
 19 53  1  0
 19 54  1  0
 19 55  1  0
M  CHG  1   1  -1
M  END
