NNH_redock_run01
     RDKit          3D

 24 23  0  0  0  0  0  0  0  0999 V2000
   25.8100  -16.4920   -5.1610 N   0  0  0  0  0  0  0  0  0  0  0  0
   25.0440  -15.4220   -4.8590 C   0  0  0  0  0  0  0  0  0  0  0  0
   23.6950  -15.6890   -4.4880 N   0  0  0  0  0  0  0  0  0  0  0  0
   23.2700  -16.8970   -4.4530 O   0  0  0  0  0  0  0  0  0  0  0  0
   25.4810  -14.1340   -4.8910 N   0  0  0  0  0  0  0  0  0  0  0  0
   24.7380  -12.8910   -4.5820 C   0  0  0  0  0  0  0  0  0  0  0  0
   25.5400  -11.8020   -3.9510 C   0  0  0  0  0  0  0  0  0  0  0  0
   25.0140  -10.6470   -3.1270 C   0  0  2  0  0  0  0  0  0  0  0  0
   24.3950  -11.2260   -1.9470 N   0  0  0  0  0  0  0  0  0  0  0  0
   24.0270   -9.7980   -3.9460 C   0  0  0  0  0  0  0  0  0  0  0  0
   24.1610   -9.4760   -5.1090 O   0  0  0  0  0  0  0  0  0  0  0  0
   22.9530   -9.4310   -3.2120 O   0  0  0  0  0  0  0  0  0  0  0  0
   25.4100  -17.4410   -5.1150 H   0  0  0  0  0  0  0  0  0  0  0  0
   23.0630  -14.9120   -4.2490 H   0  0  0  0  0  0  0  0  0  0  0  0
   22.7430  -17.0860   -5.2690 H   0  0  0  0  0  0  0  0  0  0  0  0
   26.4640  -14.0050   -5.1690 H   0  0  0  0  0  0  0  0  0  0  0  0
   24.3210  -12.5028   -5.5230 H   0  0  0  0  0  0  0  0  0  0  0  0
   23.9752  -13.1719   -3.8409 H   0  0  0  0  0  0  0  0  0  0  0  0
   26.2525  -12.3196   -3.2919 H   0  0  0  0  0  0  0  0  0  0  0  0
   25.8380  -11.2532   -4.8565 H   0  0  0  0  0  0  0  0  0  0  0  0
   25.8222   -9.9626   -2.8298 H   0  0  0  0  0  0  0  0  0  0  0  0
   23.4150  -10.9140   -1.8860 H   0  0  0  0  0  0  0  0  0  0  0  0
   24.4250  -12.2530   -2.0130 H   0  0  0  0  0  0  0  0  0  0  0  0
   22.0440   -9.4910   -3.6010 H   0  0  0  0  0  0  0  0  0  0  0  0
  1  2  2  3
  2  3  1  0
  3  4  1  0
  2  5  1  0
  5  6  1  0
  6  7  1  0
  7  8  1  0
  8  9  1  0
  8 10  1  0
 10 11  2  0
 10 12  1  0
  1 13  1  0
  3 14  1  0
  4 15  1  0
  5 16  1  0
  6 17  1  0
  6 18  1  0
  7 19  1  0
  7 20  1  0
  8 21  1  1
  9 22  1  0
  9 23  1  0
 12 24  1  0
M  END
>  <meeko>  (1) 
{"is_sidechain": [false], "free_energy": -7.936, "intermolecular_energy": -10.488, "internal_energy": -0.156}

$$$$
NNH_redock_run01
     RDKit          3D

 24 23  0  0  0  0  0  0  0  0999 V2000
   23.5290  -16.4880   -4.4520 N   0  0  0  0  0  0  0  0  0  0  0  0
   24.4550  -15.5420   -4.7150 C   0  0  0  0  0  0  0  0  0  0  0  0
   25.6390  -15.9760   -5.3750 N   0  0  0  0  0  0  0  0  0  0  0  0
   25.7790  -17.2110   -5.6890 O   0  0  0  0  0  0  0  0  0  0  0  0
   24.3210  -14.2280   -4.3890 N   0  0  0  0  0  0  0  0  0  0  0  0
   25.2620  -13.1090   -4.6280 C   0  0  0  0  0  0  0  0  0  0  0  0
   24.9020  -11.8150   -3.9780 C   0  0  0  0  0  0  0  0  0  0  0  0
   25.4410  -11.2720   -2.6720 C   0  0  2  0  0  0  0  0  0  0  0  0
   24.3600  -10.5220   -2.0560 N   0  0  0  0  0  0  0  0  0  0  0  0
   26.6880  -10.4050   -2.9170 C   0  0  0  0  0  0  0  0  0  0  0  0
   27.1140  -10.0630   -4.0000 O   0  0  0  0  0  0  0  0  0  0  0  0
   27.2840  -10.0470   -1.7580 O   0  0  0  0  0  0  0  0  0  0  0  0
   23.6990  -17.4660   -4.7280 H   0  0  0  0  0  0  0  0  0  0  0  0
   26.3820  -15.2990   -5.6010 H   0  0  0  0  0  0  0  0  0  0  0  0
   26.7180  -17.4860   -5.5370 H   0  0  0  0  0  0  0  0  0  0  0  0
   23.4450  -13.9750   -3.9110 H   0  0  0  0  0  0  0  0  0  0  0  0
   26.2509  -13.4124   -4.2537 H   0  0  0  0  0  0  0  0  0  0  0  0
   25.2359  -12.9196   -5.7113 H   0  0  0  0  0  0  0  0  0  0  0  0
   25.1425  -11.0452   -4.7261 H   0  0  0  0  0  0  0  0  0  0  0  0
   23.8767  -12.0554   -3.6603 H   0  0  0  0  0  0  0  0  0  0  0  0
   25.7659  -12.0809   -2.0011 H   0  0  0  0  0  0  0  0  0  0  0  0
   23.4990  -10.6460   -2.6070 H   0  0  0  0  0  0  0  0  0  0  0  0
   24.2070  -10.8650   -1.0980 H   0  0  0  0  0  0  0  0  0  0  0  0
   28.2250   -9.7360   -1.7600 H   0  0  0  0  0  0  0  0  0  0  0  0
  1  2  2  3
  2  3  1  0
  3  4  1  0
  2  5  1  0
  5  6  1  0
  6  7  1  0
  7  8  1  0
  8  9  1  0
  8 10  1  0
 10 11  2  0
 10 12  1  0
  1 13  1  0
  3 14  1  0
  4 15  1  0
  5 16  1  0
  6 17  1  0
  6 18  1  0
  7 19  1  0
  7 20  1  0
  8 21  1  1
  9 22  1  0
  9 23  1  0
 12 24  1  0
M  END
>  <meeko>  (2) 
{"is_sidechain": [false], "free_energy": -7.723, "intermolecular_energy": -10.216, "internal_energy": -0.147}

$$$$
NNH_redock_run01
     RDKit          3D

 24 23  0  0  0  0  0  0  0  0999 V2000
   25.8360  -16.5040   -5.1450 N   0  0  0  0  0  0  0  0  0  0  0  0
   25.0650  -15.4260   -4.8850 C   0  0  0  0  0  0  0  0  0  0  0  0
   23.7170  -15.6850   -4.5080 N   0  0  0  0  0  0  0  0  0  0  0  0
   23.2960  -16.8930   -4.4290 O   0  0  0  0  0  0  0  0  0  0  0  0
   25.4970  -14.1390   -4.9640 N   0  0  0  0  0  0  0  0  0  0  0  0
   24.7470  -12.8880   -4.7020 C   0  0  0  0  0  0  0  0  0  0  0  0
   25.5620  -11.6390   -4.6980 C   0  0  0  0  0  0  0  0  0  0  0  0
   25.3450  -10.4140   -3.8350 C   0  0  2  0  0  0  0  0  0  0  0  0
   26.4230   -9.4900   -4.1460 N   0  0  0  0  0  0  0  0  0  0  0  0
   25.3160  -10.7960   -2.3450 C   0  0  0  0  0  0  0  0  0  0  0  0
   26.2320  -11.2910   -1.7210 O   0  0  0  0  0  0  0  0  0  0  0  0
   24.1220  -10.5140   -1.7780 O   0  0  0  0  0  0  0  0  0  0  0  0
   25.4410  -17.4510   -5.0650 H   0  0  0  0  0  0  0  0  0  0  0  0
   23.0810  -14.9030   -4.2990 H   0  0  0  0  0  0  0  0  0  0  0  0
   22.6780  -17.0770   -5.1800 H   0  0  0  0  0  0  0  0  0  0  0  0
   26.4800  -14.0160   -5.2430 H   0  0  0  0  0  0  0  0  0  0  0  0
   23.9753  -12.7865   -5.4793 H   0  0  0  0  0  0  0  0  0  0  0  0
   24.3414  -12.9869   -3.6843 H   0  0  0  0  0  0  0  0  0  0  0  0
   26.5861  -11.9692   -4.4696 H   0  0  0  0  0  0  0  0  0  0  0  0
   25.2589  -11.2262   -5.6715 H   0  0  0  0  0  0  0  0  0  0  0  0
   24.3736   -9.9411   -4.0420 H   0  0  0  0  0  0  0  0  0  0  0  0
   26.0270   -8.5670   -4.3740 H   0  0  0  0  0  0  0  0  0  0  0  0
   27.0470   -9.4040   -3.3320 H   0  0  0  0  0  0  0  0  0  0  0  0
   24.0590   -9.8180   -1.0760 H   0  0  0  0  0  0  0  0  0  0  0  0
  1  2  2  3
  2  3  1  0
  3  4  1  0
  2  5  1  0
  5  6  1  0
  6  7  1  0
  7  8  1  0
  8  9  1  0
  8 10  1  0
 10 11  2  0
 10 12  1  0
  1 13  1  0
  3 14  1  0
  4 15  1  0
  5 16  1  0
  6 17  1  0
  6 18  1  0
  7 19  1  0
  7 20  1  0
  8 21  1  6
  9 22  1  0
  9 23  1  0
 12 24  1  0
M  END
>  <meeko>  (3) 
{"is_sidechain": [false], "free_energy": -7.693, "intermolecular_energy": -10.141, "internal_energy": -0.182}

$$$$
NNH_redock_run01
     RDKit          3D

 24 23  0  0  0  0  0  0  0  0999 V2000
   25.7090  -16.5470   -5.4310 N   0  0  0  0  0  0  0  0  0  0  0  0
   25.0610  -15.4730   -4.9310 C   0  0  0  0  0  0  0  0  0  0  0  0
   23.7450  -15.6980   -4.4380 N   0  0  0  0  0  0  0  0  0  0  0  0
   23.2370  -16.8740   -4.4840 O   0  0  0  0  0  0  0  0  0  0  0  0
   25.5860  -14.2190   -4.8760 N   0  0  0  0  0  0  0  0  0  0  0  0
   24.9740  -12.9770   -4.3520 C   0  0  0  0  0  0  0  0  0  0  0  0
   24.9540  -11.8220   -5.2960 C   0  0  0  0  0  0  0  0  0  0  0  0
   23.8430  -10.8090   -5.4700 C   0  0  2  0  0  0  0  0  0  0  0  0
   23.7010  -10.5900   -6.9000 N   0  0  0  0  0  0  0  0  0  0  0  0
   24.1650   -9.5110   -4.7110 C   0  0  0  0  0  0  0  0  0  0  0  0
   24.4830   -8.4530   -5.2150 O   0  0  0  0  0  0  0  0  0  0  0  0
   24.0560   -9.6710   -3.3740 O   0  0  0  0  0  0  0  0  0  0  0  0
   25.2480  -17.4680   -5.4410 H   0  0  0  0  0  0  0  0  0  0  0  0
   23.2010  -14.9160   -4.0460 H   0  0  0  0  0  0  0  0  0  0  0  0
   23.9220  -17.5390   -4.2200 H   0  0  0  0  0  0  0  0  0  0  0  0
   26.5400  -14.1200   -5.2490 H   0  0  0  0  0  0  0  0  0  0  0  0
   23.9347  -13.2036   -4.0719 H   0  0  0  0  0  0  0  0  0  0  0  0
   25.6036  -12.6642   -3.5060 H   0  0  0  0  0  0  0  0  0  0  0  0
   25.8420  -11.2273   -5.0356 H   0  0  0  0  0  0  0  0  0  0  0  0
   24.8452  -12.3694   -6.2439 H   0  0  0  0  0  0  0  0  0  0  0  0
   22.8945  -11.1740   -5.0492 H   0  0  0  0  0  0  0  0  0  0  0  0
   22.7710  -10.1940   -7.0960 H   0  0  0  0  0  0  0  0  0  0  0  0
   24.4280   -9.9350   -7.2210 H   0  0  0  0  0  0  0  0  0  0  0  0
   24.2530  -10.5510   -2.9630 H   0  0  0  0  0  0  0  0  0  0  0  0
  1  2  2  3
  2  3  1  0
  3  4  1  0
  2  5  1  0
  5  6  1  0
  6  7  1  0
  7  8  1  0
  8  9  1  0
  8 10  1  0
 10 11  2  0
 10 12  1  0
  1 13  1  0
  3 14  1  0
  4 15  1  0
  5 16  1  0
  6 17  1  0
  6 18  1  0
  7 19  1  0
  7 20  1  0
  8 21  1  1
  9 22  1  0
  9 23  1  0
 12 24  1  0
M  END
>  <meeko>  (4) 
{"is_sidechain": [false], "free_energy": -7.6, "intermolecular_energy": -10.049, "internal_energy": -0.151}

$$$$
NNH_redock_run01
     RDKit          3D

 24 23  0  0  0  0  0  0  0  0999 V2000
   25.8440  -16.5150   -5.3810 N   0  0  0  0  0  0  0  0  0  0  0  0
   25.1100  -15.4840   -4.9110 C   0  0  0  0  0  0  0  0  0  0  0  0
   23.8190  -15.8020   -4.4010 N   0  0  0  0  0  0  0  0  0  0  0  0
   23.4130  -17.0180   -4.4050 O   0  0  0  0  0  0  0  0  0  0  0  0
   25.5270  -14.1890   -4.8990 N   0  0  0  0  0  0  0  0  0  0  0  0
   24.8150  -12.9870   -4.4090 C   0  0  0  0  0  0  0  0  0  0  0  0
   25.1110  -11.7210   -5.1420 C   0  0  0  0  0  0  0  0  0  0  0  0
   25.4900  -10.3870   -4.5360 C   0  0  2  0  0  0  0  0  0  0  0  0
   26.7970  -10.5630   -3.9280 N   0  0  0  0  0  0  0  0  0  0  0  0
   24.4300   -9.9300   -3.5190 C   0  0  0  0  0  0  0  0  0  0  0  0
   23.3200   -9.5200   -3.7850 O   0  0  0  0  0  0  0  0  0  0  0  0
   24.8780  -10.0360   -2.2480 O   0  0  0  0  0  0  0  0  0  0  0  0
   25.4620  -17.4710   -5.3590 H   0  0  0  0  0  0  0  0  0  0  0  0
   23.2130  -15.0570   -4.0290 H   0  0  0  0  0  0  0  0  0  0  0  0
   23.5380  -17.4110   -3.5050 H   0  0  0  0  0  0  0  0  0  0  0  0
   26.4680  -14.0220   -5.2820 H   0  0  0  0  0  0  0  0  0  0  0  0
   23.7345  -13.1784   -4.4859 H   0  0  0  0  0  0  0  0  0  0  0  0
   25.1651  -12.8280   -3.3784 H   0  0  0  0  0  0  0  0  0  0  0  0
   25.9418  -11.9720   -5.8178 H   0  0  0  0  0  0  0  0  0  0  0  0
   24.0967  -11.4761   -5.4902 H   0  0  0  0  0  0  0  0  0  0  0  0
   25.5342   -9.5952   -5.2983 H   0  0  0  0  0  0  0  0  0  0  0  0
   26.7910  -10.1630   -2.9790 H   0  0  0  0  0  0  0  0  0  0  0  0
   27.0200  -11.5670   -3.8760 H   0  0  0  0  0  0  0  0  0  0  0  0
   24.9140  -10.9220   -1.8070 H   0  0  0  0  0  0  0  0  0  0  0  0
  1  2  2  3
  2  3  1  0
  3  4  1  0
  2  5  1  0
  5  6  1  0
  6  7  1  0
  7  8  1  0
  8  9  1  0
  8 10  1  0
 10 11  2  0
 10 12  1  0
  1 13  1  0
  3 14  1  0
  4 15  1  0
  5 16  1  0
  6 17  1  0
  6 18  1  0
  7 19  1  0
  7 20  1  0
  8 21  1  6
  9 22  1  0
  9 23  1  0
 12 24  1  0
M  END
>  <meeko>  (5) 
{"is_sidechain": [false], "free_energy": -7.408, "intermolecular_energy": -9.747, "internal_energy": -0.199}

$$$$
NNH_redock_run01
     RDKit          3D

 24 23  0  0  0  0  0  0  0  0999 V2000
   25.8530  -16.4520   -5.1660 N   0  0  0  0  0  0  0  0  0  0  0  0
   25.1540  -15.3150   -4.9610 C   0  0  0  0  0  0  0  0  0  0  0  0
   23.7940  -15.4660   -4.5700 N   0  0  0  0  0  0  0  0  0  0  0  0
   23.2960  -16.6390   -4.4280 O   0  0  0  0  0  0  0  0  0  0  0  0
   25.6680  -14.0640   -5.1070 N   0  0  0  0  0  0  0  0  0  0  0  0
   25.0020  -12.7560   -4.9090 C   0  0  0  0  0  0  0  0  0  0  0  0
   25.0940  -12.1890   -3.5310 C   0  0  0  0  0  0  0  0  0  0  0  0
   25.9540  -11.0290   -3.0810 C   0  0  2  0  0  0  0  0  0  0  0  0
   25.1120  -10.1850   -2.2500 N   0  0  0  0  0  0  0  0  0  0  0  0
   26.5240  -10.2700   -4.2920 C   0  0  0  0  0  0  0  0  0  0  0  0
   27.4020  -10.6680   -5.0300 O   0  0  0  0  0  0  0  0  0  0  0  0
   25.9260   -9.0700   -4.4580 O   0  0  0  0  0  0  0  0  0  0  0  0
   25.3970  -17.3670   -5.0370 H   0  0  0  0  0  0  0  0  0  0  0  0
   23.2100  -14.6340   -4.4000 H   0  0  0  0  0  0  0  0  0  0  0  0
   22.3090  -16.5750   -4.3840 H   0  0  0  0  0  0  0  0  0  0  0  0
   26.6560  -14.0200   -5.3930 H   0  0  0  0  0  0  0  0  0  0  0  0
   25.4584  -12.0350   -5.6031 H   0  0  0  0  0  0  0  0  0  0  0  0
   23.9317  -12.9318   -5.0919 H   0  0  0  0  0  0  0  0  0  0  0  0
   24.0651  -11.8951   -3.2759 H   0  0  0  0  0  0  0  0  0  0  0  0
   25.6322  -13.0111   -3.0365 H   0  0  0  0  0  0  0  0  0  0  0  0
   26.8261  -11.3735   -2.5059 H   0  0  0  0  0  0  0  0  0  0  0  0
   25.5340  -10.0940   -1.3150 H   0  0  0  0  0  0  0  0  0  0  0  0
   25.0270   -9.2540   -2.6800 H   0  0  0  0  0  0  0  0  0  0  0  0
   25.6780   -8.7610   -5.3670 H   0  0  0  0  0  0  0  0  0  0  0  0
  1  2  2  3
  2  3  1  0
  3  4  1  0
  2  5  1  0
  5  6  1  0
  6  7  1  0
  7  8  1  0
  8  9  1  0
  8 10  1  0
 10 11  2  0
 10 12  1  0
  1 13  1  0
  3 14  1  0
  4 15  1  0
  5 16  1  0
  6 17  1  0
  6 18  1  0
  7 19  1  0
  7 20  1  0
  8 21  1  1
  9 22  1  0
  9 23  1  0
 12 24  1  0
M  END
>  <meeko>  (6) 
{"is_sidechain": [false], "free_energy": -7.234, "intermolecular_energy": -9.633, "internal_energy": -0.083}

$$$$
NNH_redock_run01
     RDKit          3D

 24 23  0  0  0  0  0  0  0  0999 V2000
   25.7140  -16.6590   -5.3550 N   0  0  0  0  0  0  0  0  0  0  0  0
   25.0770  -15.5490   -4.9270 C   0  0  0  0  0  0  0  0  0  0  0  0
   23.7420  -15.7200   -4.4620 N   0  0  0  0  0  0  0  0  0  0  0  0
   23.2100  -16.8860   -4.4650 O   0  0  0  0  0  0  0  0  0  0  0  0
   25.6290  -14.3060   -4.9160 N   0  0  0  0  0  0  0  0  0  0  0  0
   25.0310  -13.0260   -4.4710 C   0  0  0  0  0  0  0  0  0  0  0  0
   25.1900  -11.8790   -5.4120 C   0  0  0  0  0  0  0  0  0  0  0  0
   25.7030  -11.9360   -6.8350 C   0  0  2  0  0  0  0  0  0  0  0  0
   26.9830  -11.2480   -6.8430 N   0  0  0  0  0  0  0  0  0  0  0  0
   24.6930  -11.2990   -7.8040 C   0  0  0  0  0  0  0  0  0  0  0  0
   23.8220  -10.5080   -7.5040 O   0  0  0  0  0  0  0  0  0  0  0  0
   24.8790  -11.7240   -9.0740 O   0  0  0  0  0  0  0  0  0  0  0  0
   25.2320  -17.5700   -5.3340 H   0  0  0  0  0  0  0  0  0  0  0  0
   23.2060  -14.9080   -4.1230 H   0  0  0  0  0  0  0  0  0  0  0  0
   22.7960  -17.0570   -5.3480 H   0  0  0  0  0  0  0  0  0  0  0  0
   26.5960  -14.2450   -5.2660 H   0  0  0  0  0  0  0  0  0  0  0  0
   23.9544  -13.1908   -4.3170 H   0  0  0  0  0  0  0  0  0  0  0  0
   25.5726  -12.7425   -3.5565 H   0  0  0  0  0  0  0  0  0  0  0  0
   24.1870  -11.4339   -5.4893 H   0  0  0  0  0  0  0  0  0  0  0  0
   26.0433  -11.3745   -4.9352 H   0  0  0  0  0  0  0  0  0  0  0  0
   25.8318  -12.9737   -7.1764 H   0  0  0  0  0  0  0  0  0  0  0  0
   26.8840  -10.3340   -6.3770 H   0  0  0  0  0  0  0  0  0  0  0  0
   27.6810  -11.8150   -6.3410 H   0  0  0  0  0  0  0  0  0  0  0  0
   24.1230  -11.7180   -9.7140 H   0  0  0  0  0  0  0  0  0  0  0  0
  1  2  2  3
  2  3  1  0
  3  4  1  0
  2  5  1  0
  5  6  1  0
  6  7  1  0
  7  8  1  0
  8  9  1  0
  8 10  1  0
 10 11  2  0
 10 12  1  0
  1 13  1  0
  3 14  1  0
  4 15  1  0
  5 16  1  0
  6 17  1  0
  6 18  1  0
  7 19  1  0
  7 20  1  0
  8 21  1  6
  9 22  1  0
  9 23  1  0
 12 24  1  0
M  END
>  <meeko>  (7) 
{"is_sidechain": [false], "free_energy": -7.039, "intermolecular_energy": -9.275, "internal_energy": -0.183}

$$$$
NNH_redock_run01
     RDKit          3D

 24 23  0  0  0  0  0  0  0  0999 V2000
   23.2740   -6.8500   -4.1190 N   0  0  0  0  0  0  0  0  0  0  0  0
   23.5250   -8.1380   -4.4340 C   0  0  0  0  0  0  0  0  0  0  0  0
   22.5110   -9.0820   -4.1080 N   0  0  0  0  0  0  0  0  0  0  0  0
   21.4280   -8.6880   -3.5460 O   0  0  0  0  0  0  0  0  0  0  0  0
   24.6680   -8.5720   -5.0310 N   0  0  0  0  0  0  0  0  0  0  0  0
   25.0490   -9.9490   -5.4220 C   0  0  0  0  0  0  0  0  0  0  0  0
   25.9450  -10.6640   -4.4660 C   0  0  0  0  0  0  0  0  0  0  0  0
   25.5550  -11.7700   -3.5090 C   0  0  2  0  0  0  0  0  0  0  0  0
   24.6130  -12.6190   -4.2170 N   0  0  0  0  0  0  0  0  0  0  0  0
   24.9580  -11.1860   -2.2170 C   0  0  0  0  0  0  0  0  0  0  0  0
   24.1830  -10.2550   -2.1500 O   0  0  0  0  0  0  0  0  0  0  0  0
   25.3990  -11.8410   -1.1200 O   0  0  0  0  0  0  0  0  0  0  0  0
   22.3840   -6.5940   -3.6670 H   0  0  0  0  0  0  0  0  0  0  0  0
   22.6470  -10.0810   -4.3230 H   0  0  0  0  0  0  0  0  0  0  0  0
   21.5900   -8.5500   -2.5790 H   0  0  0  0  0  0  0  0  0  0  0  0
   25.3650   -7.8430   -5.2400 H   0  0  0  0  0  0  0  0  0  0  0  0
   24.1265  -10.5388   -5.5276 H   0  0  0  0  0  0  0  0  0  0  0  0
   25.6215   -9.8501   -6.3560 H   0  0  0  0  0  0  0  0  0  0  0  0
   26.7398  -11.0968   -5.0913 H   0  0  0  0  0  0  0  0  0  0  0  0
   26.1150   -9.8538   -3.7417 H   0  0  0  0  0  0  0  0  0  0  0  0
   26.4289  -12.3598   -3.1950 H   0  0  0  0  0  0  0  0  0  0  0  0
   24.6050  -12.3650   -5.2150 H   0  0  0  0  0  0  0  0  0  0  0  0
   24.8950  -13.6040   -4.1160 H   0  0  0  0  0  0  0  0  0  0  0  0
   26.2020  -11.5170   -0.6390 H   0  0  0  0  0  0  0  0  0  0  0  0
  1  2  2  3
  2  3  1  0
  3  4  1  0
  2  5  1  0
  5  6  1  0
  6  7  1  0
  7  8  1  0
  8  9  1  0
  8 10  1  0
 10 11  2  0
 10 12  1  0
  1 13  1  0
  3 14  1  0
  4 15  1  0
  5 16  1  0
  6 17  1  0
  6 18  1  0
  7 19  1  0
  7 20  1  0
  8 21  1  1
  9 22  1  0
  9 23  1  0
 12 24  1  0
M  END
>  <meeko>  (8) 
{"is_sidechain": [false], "free_energy": -6.9, "intermolecular_energy": -8.792, "internal_energy": -0.482}

$$$$
NNH_redock_run01
     RDKit          3D

 24 23  0  0  0  0  0  0  0  0999 V2000
   21.4880   -8.7390   -4.1290 N   0  0  0  0  0  0  0  0  0  0  0  0
   22.7860   -9.0100   -4.3850 C   0  0  0  0  0  0  0  0  0  0  0  0
   23.6980   -7.9220   -4.2700 N   0  0  0  0  0  0  0  0  0  0  0  0
   23.2680   -6.7610   -3.9370 O   0  0  0  0  0  0  0  0  0  0  0  0
   23.2570  -10.2360   -4.7380 N   0  0  0  0  0  0  0  0  0  0  0  0
   24.6480  -10.6470   -5.0380 C   0  0  0  0  0  0  0  0  0  0  0  0
   25.3150  -11.4720   -3.9890 C   0  0  0  0  0  0  0  0  0  0  0  0
   25.7980  -11.0030   -2.6330 C   0  0  2  0  0  0  0  0  0  0  0  0
   24.7540  -10.1470   -2.0940 N   0  0  0  0  0  0  0  0  0  0  0  0
   27.1450  -10.2700   -2.7590 C   0  0  0  0  0  0  0  0  0  0  0  0
   27.7490  -10.0650   -3.7910 O   0  0  0  0  0  0  0  0  0  0  0  0
   27.6070   -9.8620   -1.5560 O   0  0  0  0  0  0  0  0  0  0  0  0
   21.2040   -7.7840   -3.8670 H   0  0  0  0  0  0  0  0  0  0  0  0
   24.7000   -8.0680   -4.4540 H   0  0  0  0  0  0  0  0  0  0  0  0
   23.9560   -6.2970   -3.3980 H   0  0  0  0  0  0  0  0  0  0  0  0
   22.5500  -10.9810   -4.8070 H   0  0  0  0  0  0  0  0  0  0  0  0
   24.6353  -11.2303   -5.9705 H   0  0  0  0  0  0  0  0  0  0  0  0
   25.2299   -9.7159   -5.1049 H   0  0  0  0  0  0  0  0  0  0  0  0
   24.6046  -12.2834   -3.7720 H   0  0  0  0  0  0  0  0  0  0  0  0
   26.2873  -11.6293   -4.4788 H   0  0  0  0  0  0  0  0  0  0  0  0
   25.9792  -11.8489   -1.9536 H   0  0  0  0  0  0  0  0  0  0  0  0
   23.8680  -10.3360   -2.5850 H   0  0  0  0  0  0  0  0  0  0  0  0
   24.6380  -10.3400   -1.0890 H   0  0  0  0  0  0  0  0  0  0  0  0
   28.2460   -9.1070   -1.5010 H   0  0  0  0  0  0  0  0  0  0  0  0
  1  2  2  3
  2  3  1  0
  3  4  1  0
  2  5  1  0
  5  6  1  0
  6  7  1  0
  7  8  1  0
  8  9  1  0
  8 10  1  0
 10 11  2  0
 10 12  1  0
  1 13  1  0
  3 14  1  0
  4 15  1  0
  5 16  1  0
  6 17  1  0
  6 18  1  0
  7 19  1  0
  7 20  1  0
  8 21  1  1
  9 22  1  0
  9 23  1  0
 12 24  1  0
M  END
>  <meeko>  (9) 
{"is_sidechain": [false], "free_energy": -6.704, "intermolecular_energy": -8.591, "internal_energy": -0.425}

$$$$
NNH_redock_run01
     RDKit          3D

 24 23  0  0  0  0  0  0  0  0999 V2000
   21.6150   -8.9210   -4.2990 N   0  0  0  0  0  0  0  0  0  0  0  0
   22.9530   -9.0840   -4.2290 C   0  0  0  0  0  0  0  0  0  0  0  0
   23.7440   -7.9060   -4.3360 N   0  0  0  0  0  0  0  0  0  0  0  0
   23.1760   -6.7670   -4.4880 O   0  0  0  0  0  0  0  0  0  0  0  0
   23.5700  -10.2860   -4.0670 N   0  0  0  0  0  0  0  0  0  0  0  0
   25.0190  -10.5830   -3.9760 C   0  0  0  0  0  0  0  0  0  0  0  0
   25.3810  -12.0300   -4.0030 C   0  0  0  0  0  0  0  0  0  0  0  0
   25.7770  -12.8460   -5.2150 C   0  0  2  0  0  0  0  0  0  0  0  0
   25.3040  -12.1170   -6.3800 N   0  0  0  0  0  0  0  0  0  0  0  0
   25.1860  -14.2630   -5.1350 C   0  0  0  0  0  0  0  0  0  0  0  0
   25.6890  -15.2700   -5.5890 O   0  0  0  0  0  0  0  0  0  0  0  0
   24.0010  -14.2760   -4.4830 O   0  0  0  0  0  0  0  0  0  0  0  0
   21.2170   -7.9790   -4.4230 H   0  0  0  0  0  0  0  0  0  0  0  0
   24.7720   -7.9680   -4.2910 H   0  0  0  0  0  0  0  0  0  0  0  0
   22.3660   -6.7240   -3.9210 H   0  0  0  0  0  0  0  0  0  0  0  0
   22.9450  -11.1010   -3.9990 H   0  0  0  0  0  0  0  0  0  0  0  0
   25.5194  -10.0926   -4.8240 H   0  0  0  0  0  0  0  0  0  0  0  0
   25.3428  -10.2090   -2.9935 H   0  0  0  0  0  0  0  0  0  0  0  0
   26.2291  -12.1233   -3.3087 H   0  0  0  0  0  0  0  0  0  0  0  0
   24.3886  -12.4648   -3.8129 H   0  0  0  0  0  0  0  0  0  0  0  0
   26.8674  -12.9795   -5.2724 H   0  0  0  0  0  0  0  0  0  0  0  0
   25.8840  -12.3580   -7.1950 H   0  0  0  0  0  0  0  0  0  0  0  0
   24.3240  -12.3710   -6.5690 H   0  0  0  0  0  0  0  0  0  0  0  0
   23.1860  -14.6000   -4.9430 H   0  0  0  0  0  0  0  0  0  0  0  0
  1  2  2  3
  2  3  1  0
  3  4  1  0
  2  5  1  0
  5  6  1  0
  6  7  1  0
  7  8  1  0
  8  9  1  0
  8 10  1  0
 10 11  2  0
 10 12  1  0
  1 13  1  0
  3 14  1  0
  4 15  1  0
  5 16  1  0
  6 17  1  0
  6 18  1  0
  7 19  1  0
  7 20  1  0
  8 21  1  6
  9 22  1  0
  9 23  1  0
 12 24  1  0
M  END
>  <meeko>  (10) 
{"is_sidechain": [false], "free_energy": -6.693, "intermolecular_energy": -8.702, "internal_energy": -0.3}

$$$$
NNH_redock_run01
     RDKit          3D

 24 23  0  0  0  0  0  0  0  0999 V2000
   25.6620   -6.8080   -5.1740 N   0  0  0  0  0  0  0  0  0  0  0  0
   24.8590   -7.8660   -4.9360 C   0  0  0  0  0  0  0  0  0  0  0  0
   23.6400   -7.5980   -4.2500 N   0  0  0  0  0  0  0  0  0  0  0  0
   23.3570   -6.3990   -3.8950 O   0  0  0  0  0  0  0  0  0  0  0  0
   25.1440   -9.1430   -5.3080 N   0  0  0  0  0  0  0  0  0  0  0  0
   24.3440  -10.3720   -5.1030 C   0  0  0  0  0  0  0  0  0  0  0  0
   24.9080  -11.3520   -4.1290 C   0  0  0  0  0  0  0  0  0  0  0  0
   25.2040  -11.1100   -2.6650 C   0  0  2  0  0  0  0  0  0  0  0  0
   24.2360  -10.1300   -2.2020 N   0  0  0  0  0  0  0  0  0  0  0  0
   26.6540  -10.6340   -2.4730 C   0  0  0  0  0  0  0  0  0  0  0  0
   27.3410  -10.0940   -3.3150 O   0  0  0  0  0  0  0  0  0  0  0  0
   27.1040  -10.8880   -1.2240 O   0  0  0  0  0  0  0  0  0  0  0  0
   25.3800   -5.8670   -4.8630 H   0  0  0  0  0  0  0  0  0  0  0  0
   22.9870   -8.3660   -4.0390 H   0  0  0  0  0  0  0  0  0  0  0  0
   22.6450   -6.0410   -4.4820 H   0  0  0  0  0  0  0  0  0  0  0  0
   26.0400   -9.2730   -5.7990 H   0  0  0  0  0  0  0  0  0  0  0  0
   23.3485  -10.0721   -4.7438 H   0  0  0  0  0  0  0  0  0  0  0  0
   24.3287  -10.8874   -6.0747 H   0  0  0  0  0  0  0  0  0  0  0  0
   24.2067  -12.1994   -4.1405 H   0  0  0  0  0  0  0  0  0  0  0  0
   25.9378  -11.4101   -4.5114 H   0  0  0  0  0  0  0  0  0  0  0  0
   25.1131  -12.0349   -2.0766 H   0  0  0  0  0  0  0  0  0  0  0  0
   24.3040   -9.2810   -2.7820 H   0  0  0  0  0  0  0  0  0  0  0  0
   23.2870  -10.5220   -2.2760 H   0  0  0  0  0  0  0  0  0  0  0  0
   27.2080  -10.1470   -0.5750 H   0  0  0  0  0  0  0  0  0  0  0  0
  1  2  2  3
  2  3  1  0
  3  4  1  0
  2  5  1  0
  5  6  1  0
  6  7  1  0
  7  8  1  0
  8  9  1  0
  8 10  1  0
 10 11  2  0
 10 12  1  0
  1 13  1  0
  3 14  1  0
  4 15  1  0
  5 16  1  0
  6 17  1  0
  6 18  1  0
  7 19  1  0
  7 20  1  0
  8 21  1  1
  9 22  1  0
  9 23  1  0
 12 24  1  0
M  END
>  <meeko>  (11) 
{"is_sidechain": [false], "free_energy": -6.488, "intermolecular_energy": -7.873, "internal_energy": -0.857}

$$$$
NNH_redock_run01
     RDKit          3D

 24 23  0  0  0  0  0  0  0  0999 V2000
   21.8410   -8.6990   -3.8830 N   0  0  0  0  0  0  0  0  0  0  0  0
   23.1770   -8.8220   -4.0360 C   0  0  0  0  0  0  0  0  0  0  0  0
   23.8850   -7.6460   -4.4140 N   0  0  0  0  0  0  0  0  0  0  0  0
   23.2500   -6.5460   -4.5880 O   0  0  0  0  0  0  0  0  0  0  0  0
   23.8650   -9.9820   -3.8540 N   0  0  0  0  0  0  0  0  0  0  0  0
   25.3180  -10.2320   -3.9910 C   0  0  0  0  0  0  0  0  0  0  0  0
   25.7340  -10.9360   -5.2390 C   0  0  0  0  0  0  0  0  0  0  0  0
   25.8420  -10.3400   -6.6260 C   0  0  2  0  0  0  0  0  0  0  0  0
   25.8150   -8.8960   -6.4610 N   0  0  0  0  0  0  0  0  0  0  0  0
   24.7010  -10.8450   -7.5260 C   0  0  0  0  0  0  0  0  0  0  0  0
   24.8330  -11.3880   -8.6040 O   0  0  0  0  0  0  0  0  0  0  0  0
   23.4880  -10.6150   -6.9750 O   0  0  0  0  0  0  0  0  0  0  0  0
   21.3870   -7.7870   -4.0380 H   0  0  0  0  0  0  0  0  0  0  0  0
   24.9060   -7.6790   -4.5470 H   0  0  0  0  0  0  0  0  0  0  0  0
   22.3110   -6.7430   -4.8300 H   0  0  0  0  0  0  0  0  0  0  0  0
   23.2980  -10.7970   -3.5840 H   0  0  0  0  0  0  0  0  0  0  0  0
   25.8332   -9.2605   -3.9622 H   0  0  0  0  0  0  0  0  0  0  0  0
   25.5885  -10.9023   -3.1618 H   0  0  0  0  0  0  0  0  0  0  0  0
   26.7372  -11.3311   -5.0210 H   0  0  0  0  0  0  0  0  0  0  0  0
   24.8490  -11.5722   -5.3875 H   0  0  0  0  0  0  0  0  0  0  0  0
   26.7741  -10.6441   -7.1247 H   0  0  0  0  0  0  0  0  0  0  0  0
   26.6310   -8.4820   -6.9330 H   0  0  0  0  0  0  0  0  0  0  0  0
   24.9510   -8.5190   -6.8760 H   0  0  0  0  0  0  0  0  0  0  0  0
   22.6660  -10.7730   -7.5040 H   0  0  0  0  0  0  0  0  0  0  0  0
  1  2  2  3
  2  3  1  0
  3  4  1  0
  2  5  1  0
  5  6  1  0
  6  7  1  0
  7  8  1  0
  8  9  1  0
  8 10  1  0
 10 11  2  0
 10 12  1  0
  1 13  1  0
  3 14  1  0
  4 15  1  0
  5 16  1  0
  6 17  1  0
  6 18  1  0
  7 19  1  0
  7 20  1  0
  8 21  1  6
  9 22  1  0
  9 23  1  0
 12 24  1  0
M  END
>  <meeko>  (12) 
{"is_sidechain": [false], "free_energy": -6.44, "intermolecular_energy": -7.794, "internal_energy": -0.874}

$$$$
NNH_redock_run01
     RDKit          3D

 24 23  0  0  0  0  0  0  0  0999 V2000
   24.4520  -11.3640   -1.6480 N   0  0  0  0  0  0  0  0  0  0  0  0
   25.0810  -10.5640   -2.5360 C   0  0  0  0  0  0  0  0  0  0  0  0
   26.4660  -10.3290   -2.3100 N   0  0  0  0  0  0  0  0  0  0  0  0
   27.0510  -10.8700   -1.3050 O   0  0  0  0  0  0  0  0  0  0  0  0
   24.4750   -9.9840   -3.6070 N   0  0  0  0  0  0  0  0  0  0  0  0
   25.0600   -9.0980   -4.6390 C   0  0  0  0  0  0  0  0  0  0  0  0
   25.6980   -9.7910   -5.7960 C   0  0  0  0  0  0  0  0  0  0  0  0
   25.1610  -10.9900   -6.5460 C   0  0  2  0  0  0  0  0  0  0  0  0
   23.7140  -10.8560   -6.5620 N   0  0  0  0  0  0  0  0  0  0  0  0
   25.6170  -12.2990   -5.8800 C   0  0  0  0  0  0  0  0  0  0  0  0
   26.7070  -12.8180   -6.0050 O   0  0  0  0  0  0  0  0  0  0  0  0
   24.6430  -12.8370   -5.1110 O   0  0  0  0  0  0  0  0  0  0  0  0
   24.9760  -11.7690   -0.8590 H   0  0  0  0  0  0  0  0  0  0  0  0
   26.9990   -9.7260   -2.9530 H   0  0  0  0  0  0  0  0  0  0  0  0
   26.4870  -10.7620   -0.4990 H   0  0  0  0  0  0  0  0  0  0  0  0
   23.4720  -10.1900   -3.7160 H   0  0  0  0  0  0  0  0  0  0  0  0
   24.2563   -8.4566   -5.0297 H   0  0  0  0  0  0  0  0  0  0  0  0
   25.8669   -8.5434   -4.1377 H   0  0  0  0  0  0  0  0  0  0  0  0
   25.8224   -9.0103   -6.5609 H   0  0  0  0  0  0  0  0  0  0  0  0
   26.5391  -10.2705   -5.2738 H   0  0  0  0  0  0  0  0  0  0  0  0
   25.5470  -11.0277   -7.5754 H   0  0  0  0  0  0  0  0  0  0  0  0
   23.3740  -10.9210   -7.5320 H   0  0  0  0  0  0  0  0  0  0  0  0
   23.2930  -11.6080   -6.0000 H   0  0  0  0  0  0  0  0  0  0  0  0
   24.8370  -13.0930   -4.1740 H   0  0  0  0  0  0  0  0  0  0  0  0
  1  2  2  3
  2  3  1  0
  3  4  1  0
  2  5  1  0
  5  6  1  0
  6  7  1  0
  7  8  1  0
  8  9  1  0
  8 10  1  0
 10 11  2  0
 10 12  1  0
  1 13  1  0
  3 14  1  0
  4 15  1  0
  5 16  1  0
  6 17  1  0
  6 18  1  0
  7 19  1  0
  7 20  1  0
  8 21  1  6
  9 22  1  0
  9 23  1  0
 12 24  1  0
M  END
>  <meeko>  (13) 
{"is_sidechain": [false], "free_energy": -6.435, "intermolecular_energy": -8.01, "internal_energy": -0.65}

$$$$
NNH_redock_run01
     RDKit          3D

 24 23  0  0  0  0  0  0  0  0999 V2000
   22.6210   -9.1630   -3.6150 N   0  0  0  0  0  0  0  0  0  0  0  0
   23.9200   -9.3640   -3.9220 C   0  0  0  0  0  0  0  0  0  0  0  0
   24.7010  -10.0640   -2.9590 N   0  0  0  0  0  0  0  0  0  0  0  0
   24.1600  -10.4670   -1.8690 O   0  0  0  0  0  0  0  0  0  0  0  0
   24.5090   -8.9430   -5.0750 N   0  0  0  0  0  0  0  0  0  0  0  0
   25.9130   -9.1080   -5.5160 C   0  0  0  0  0  0  0  0  0  0  0  0
   26.1000   -9.8330   -6.8070 C   0  0  0  0  0  0  0  0  0  0  0  0
   25.4660  -11.1460   -7.2120 C   0  0  2  0  0  0  0  0  0  0  0  0
   24.0560  -10.8750   -7.4340 N   0  0  0  0  0  0  0  0  0  0  0  0
   25.6910  -12.2170   -6.1310 C   0  0  0  0  0  0  0  0  0  0  0  0
   26.6850  -12.9030   -6.0060 O   0  0  0  0  0  0  0  0  0  0  0  0
   24.6300  -12.3210   -5.3000 O   0  0  0  0  0  0  0  0  0  0  0  0
   22.2440   -9.5100   -2.7220 H   0  0  0  0  0  0  0  0  0  0  0  0
   25.6990  -10.2460   -3.1380 H   0  0  0  0  0  0  0  0  0  0  0  0
   23.9250   -9.6860   -1.3090 H   0  0  0  0  0  0  0  0  0  0  0  0
   23.8930   -8.4410   -5.7300 H   0  0  0  0  0  0  0  0  0  0  0  0
   26.3546   -8.1062   -5.6229 H   0  0  0  0  0  0  0  0  0  0  0  0
   26.3998   -9.7276   -4.7485 H   0  0  0  0  0  0  0  0  0  0  0  0
   25.7897   -9.1169   -7.5822 H   0  0  0  0  0  0  0  0  0  0  0  0
   27.1381  -10.1710   -6.6722 H   0  0  0  0  0  0  0  0  0  0  0  0
   25.9208  -11.5477   -8.1295 H   0  0  0  0  0  0  0  0  0  0  0  0
   23.8890  -10.7240   -8.4390 H   0  0  0  0  0  0  0  0  0  0  0  0
   23.4970  -11.6770   -7.1100 H   0  0  0  0  0  0  0  0  0  0  0  0
   24.2700  -11.5150   -4.8520 H   0  0  0  0  0  0  0  0  0  0  0  0
  1  2  2  3
  2  3  1  0
  3  4  1  0
  2  5  1  0
  5  6  1  0
  6  7  1  0
  7  8  1  0
  8  9  1  0
  8 10  1  0
 10 11  2  0
 10 12  1  0
  1 13  1  0
  3 14  1  0
  4 15  1  0
  5 16  1  0
  6 17  1  0
  6 18  1  0
  7 19  1  0
  7 20  1  0
  8 21  1  6
  9 22  1  0
  9 23  1  0
 12 24  1  0
M  END
>  <meeko>  (14) 
{"is_sidechain": [false], "free_energy": -6.341, "intermolecular_energy": -7.754, "internal_energy": -0.781}

$$$$
NNH_redock_run01
     RDKit          3D

 24 23  0  0  0  0  0  0  0  0999 V2000
   22.3350   -8.6660   -3.9670 N   0  0  0  0  0  0  0  0  0  0  0  0
   23.6350   -8.6210   -4.3280 C   0  0  0  0  0  0  0  0  0  0  0  0
   24.1560   -7.3410   -4.6710 N   0  0  0  0  0  0  0  0  0  0  0  0
   23.3970   -6.3090   -4.6250 O   0  0  0  0  0  0  0  0  0  0  0  0
   24.4530   -9.7070   -4.3800 N   0  0  0  0  0  0  0  0  0  0  0  0
   25.8840   -9.7760   -4.7560 C   0  0  0  0  0  0  0  0  0  0  0  0
   26.1600  -10.1860   -6.1640 C   0  0  0  0  0  0  0  0  0  0  0  0
   25.6560  -11.4300   -6.8640 C   0  0  2  0  0  0  0  0  0  0  0  0
   24.3870  -11.0760   -7.4780 N   0  0  0  0  0  0  0  0  0  0  0  0
   25.5170  -12.5960   -5.8700 C   0  0  0  0  0  0  0  0  0  0  0  0
   24.5560  -12.8160   -5.1630 O   0  0  0  0  0  0  0  0  0  0  0  0
   26.6170  -13.3820   -5.8630 O   0  0  0  0  0  0  0  0  0  0  0  0
   21.7750   -7.8020   -3.9510 H   0  0  0  0  0  0  0  0  0  0  0  0
   25.1410   -7.2450   -4.9550 H   0  0  0  0  0  0  0  0  0  0  0  0
   23.6330   -5.7610   -3.8350 H   0  0  0  0  0  0  0  0  0  0  0  0
   24.0180  -10.6040   -4.1230 H   0  0  0  0  0  0  0  0  0  0  0  0
   26.3234   -8.7795   -4.6010 H   0  0  0  0  0  0  0  0  0  0  0  0
   26.3251  -10.5591   -4.1218 H   0  0  0  0  0  0  0  0  0  0  0  0
   25.7997   -9.3484   -6.7793 H   0  0  0  0  0  0  0  0  0  0  0  0
   27.2220  -10.4554   -6.0657 H   0  0  0  0  0  0  0  0  0  0  0  0
   26.3628  -11.7747   -7.6332 H   0  0  0  0  0  0  0  0  0  0  0  0
   24.4930  -10.1950   -8.0000 H   0  0  0  0  0  0  0  0  0  0  0  0
   24.0980  -11.8250   -8.1230 H   0  0  0  0  0  0  0  0  0  0  0  0
   27.2510  -13.3530   -6.6230 H   0  0  0  0  0  0  0  0  0  0  0  0
  1  2  2  3
  2  3  1  0
  3  4  1  0
  2  5  1  0
  5  6  1  0
  6  7  1  0
  7  8  1  0
  8  9  1  0
  8 10  1  0
 10 11  2  0
 10 12  1  0
  1 13  1  0
  3 14  1  0
  4 15  1  0
  5 16  1  0
  6 17  1  0
  6 18  1  0
  7 19  1  0
  7 20  1  0
  8 21  1  6
  9 22  1  0
  9 23  1  0
 12 24  1  0
M  END
>  <meeko>  (15) 
{"is_sidechain": [false], "free_energy": -6.236, "intermolecular_energy": -7.918, "internal_energy": -0.479}

$$$$
NNH_redock_run01
     RDKit          3D

 24 23  0  0  0  0  0  0  0  0999 V2000
   24.0280   -6.4940   -4.6880 N   0  0  0  0  0  0  0  0  0  0  0  0
   24.9900   -7.3730   -5.0400 C   0  0  0  0  0  0  0  0  0  0  0  0
   26.3240   -6.8770   -5.0750 N   0  0  0  0  0  0  0  0  0  0  0  0
   26.5580   -5.6520   -4.7800 O   0  0  0  0  0  0  0  0  0  0  0  0
   24.7580   -8.6760   -5.3560 N   0  0  0  0  0  0  0  0  0  0  0  0
   25.7270   -9.7240   -5.7510 C   0  0  0  0  0  0  0  0  0  0  0  0
   26.1790  -10.6290   -4.6540 C   0  0  0  0  0  0  0  0  0  0  0  0
   25.3420  -11.6520   -3.9160 C   0  0  2  0  0  0  0  0  0  0  0  0
   24.3510  -12.1370   -4.8610 N   0  0  0  0  0  0  0  0  0  0  0  0
   24.6990  -11.0290   -2.6650 C   0  0  0  0  0  0  0  0  0  0  0  0
   24.0830   -9.9830   -2.6280 O   0  0  0  0  0  0  0  0  0  0  0  0
   24.8960  -11.7920   -1.5670 O   0  0  0  0  0  0  0  0  0  0  0  0
   24.2780   -5.5200   -4.4620 H   0  0  0  0  0  0  0  0  0  0  0  0
   27.1000   -7.5010   -5.3380 H   0  0  0  0  0  0  0  0  0  0  0  0
   25.7370   -5.1160   -4.9200 H   0  0  0  0  0  0  0  0  0  0  0  0
   23.7740   -8.9750   -5.3140 H   0  0  0  0  0  0  0  0  0  0  0  0
   25.2574  -10.3435   -6.5292 H   0  0  0  0  0  0  0  0  0  0  0  0
   26.6265   -9.1900   -6.0912 H   0  0  0  0  0  0  0  0  0  0  0  0
   27.0132  -11.2023   -5.0847 H   0  0  0  0  0  0  0  0  0  0  0  0
   26.3014   -9.8872   -3.8510 H   0  0  0  0  0  0  0  0  0  0  0  0
   25.9555  -12.4893   -3.5519 H   0  0  0  0  0  0  0  0  0  0  0  0
   23.4290  -12.1700   -4.4040 H   0  0  0  0  0  0  0  0  0  0  0  0
   24.3110  -11.5040   -5.6720 H   0  0  0  0  0  0  0  0  0  0  0  0
   25.8140  -11.9460   -1.2290 H   0  0  0  0  0  0  0  0  0  0  0  0
  1  2  2  3
  2  3  1  0
  3  4  1  0
  2  5  1  0
  5  6  1  0
  6  7  1  0
  7  8  1  0
  8  9  1  0
  8 10  1  0
 10 11  2  0
 10 12  1  0
  1 13  1  0
  3 14  1  0
  4 15  1  0
  5 16  1  0
  6 17  1  0
  6 18  1  0
  7 19  1  0
  7 20  1  0
  8 21  1  1
  9 22  1  0
  9 23  1  0
 12 24  1  0
M  END
>  <meeko>  (16) 
{"is_sidechain": [false], "free_energy": -6.221, "intermolecular_energy": -7.834, "internal_energy": -0.544}

$$$$
NNH_redock_run01
     RDKit          3D

 24 23  0  0  0  0  0  0  0  0999 V2000
   28.3160   -8.9940   -4.1200 N   0  0  0  0  0  0  0  0  0  0  0  0
   27.4810  -10.0330   -3.9050 C   0  0  0  0  0  0  0  0  0  0  0  0
   27.2280  -10.3750   -2.5460 N   0  0  0  0  0  0  0  0  0  0  0  0
   27.7820   -9.7050   -1.6050 O   0  0  0  0  0  0  0  0  0  0  0  0
   26.8840  -10.7530   -4.8930 N   0  0  0  0  0  0  0  0  0  0  0  0
   25.9560  -11.9020   -4.7770 C   0  0  0  0  0  0  0  0  0  0  0  0
   24.5360  -11.5530   -4.4790 C   0  0  0  0  0  0  0  0  0  0  0  0
   23.7290  -10.4280   -5.0890 C   0  0  2  0  0  0  0  0  0  0  0  0
   24.4410  -10.0070   -6.2840 N   0  0  0  0  0  0  0  0  0  0  0  0
   23.5490   -9.2790   -4.0830 C   0  0  0  0  0  0  0  0  0  0  0  0
   22.8000   -8.3320   -4.2120 O   0  0  0  0  0  0  0  0  0  0  0  0
   24.3390   -9.4350   -2.9970 O   0  0  0  0  0  0  0  0  0  0  0  0
   28.7320   -8.4950   -3.3210 H   0  0  0  0  0  0  0  0  0  0  0  0
   26.5990  -11.1600   -2.3200 H   0  0  0  0  0  0  0  0  0  0  0  0
   28.6900   -9.4280   -1.8870 H   0  0  0  0  0  0  0  0  0  0  0  0
   27.1080  -10.4590   -5.8540 H   0  0  0  0  0  0  0  0  0  0  0  0
   25.9771  -12.4523   -5.7292 H   0  0  0  0  0  0  0  0  0  0  0  0
   26.3094  -12.4902   -3.9173 H   0  0  0  0  0  0  0  0  0  0  0  0
   23.9659  -12.4661   -4.7053 H   0  0  0  0  0  0  0  0  0  0  0  0
   24.6617  -11.1504   -3.4631 H   0  0  0  0  0  0  0  0  0  0  0  0
   22.7129  -10.7568   -5.3526 H   0  0  0  0  0  0  0  0  0  0  0  0
   24.7420   -9.0270   -6.1770 H   0  0  0  0  0  0  0  0  0  0  0  0
   25.2670  -10.6060   -6.4210 H   0  0  0  0  0  0  0  0  0  0  0  0
   25.3230   -9.3750   -3.0880 H   0  0  0  0  0  0  0  0  0  0  0  0
  1  2  2  3
  2  3  1  0
  3  4  1  0
  2  5  1  0
  5  6  1  0
  6  7  1  0
  7  8  1  0
  8  9  1  0
  8 10  1  0
 10 11  2  0
 10 12  1  0
  1 13  1  0
  3 14  1  0
  4 15  1  0
  5 16  1  0
  6 17  1  0
  6 18  1  0
  7 19  1  0
  7 20  1  0
  8 21  1  6
  9 22  1  0
  9 23  1  0
 12 24  1  0
M  END
>  <meeko>  (17) 
{"is_sidechain": [false], "free_energy": -6.042, "intermolecular_energy": -7.434, "internal_energy": -0.707}

$$$$
NNH_redock_run01
     RDKit          3D

 24 23  0  0  0  0  0  0  0  0999 V2000
   28.1340   -8.0650   -4.9370 N   0  0  0  0  0  0  0  0  0  0  0  0
   26.8700   -8.2610   -5.3690 C   0  0  0  0  0  0  0  0  0  0  0  0
   25.9940   -7.1410   -5.3010 N   0  0  0  0  0  0  0  0  0  0  0  0
   26.4230   -6.0210   -4.8490 O   0  0  0  0  0  0  0  0  0  0  0  0
   26.4000   -9.4430   -5.8530 N   0  0  0  0  0  0  0  0  0  0  0  0
   25.0450   -9.7700   -6.3520 C   0  0  0  0  0  0  0  0  0  0  0  0
   24.1520  -10.4660   -5.3800 C   0  0  0  0  0  0  0  0  0  0  0  0
   23.7010   -9.9510   -4.0300 C   0  0  2  0  0  0  0  0  0  0  0  0
   23.6530   -8.5020   -4.1330 N   0  0  0  0  0  0  0  0  0  0  0  0
   24.6540  -10.4250   -2.9200 C   0  0  0  0  0  0  0  0  0  0  0  0
   25.8120  -10.7570   -3.0710 O   0  0  0  0  0  0  0  0  0  0  0  0
   24.0500  -10.4350   -1.7110 O   0  0  0  0  0  0  0  0  0  0  0  0
   28.4200   -7.1410   -4.5830 H   0  0  0  0  0  0  0  0  0  0  0  0
   25.0170   -7.2300   -5.6160 H   0  0  0  0  0  0  0  0  0  0  0  0
   27.4130   -6.0300   -4.8300 H   0  0  0  0  0  0  0  0  0  0  0  0
   27.0800  -10.2160   -5.8740 H   0  0  0  0  0  0  0  0  0  0  0  0
   24.5567   -8.8296   -6.6472 H   0  0  0  0  0  0  0  0  0  0  0  0
   25.1919  -10.4742   -7.1842 H   0  0  0  0  0  0  0  0  0  0  0  0
   23.2222  -10.6576   -5.9357 H   0  0  0  0  0  0  0  0  0  0  0  0
   24.8363  -11.2605   -5.0475 H   0  0  0  0  0  0  0  0  0  0  0  0
   22.7089  -10.3418   -3.7598 H   0  0  0  0  0  0  0  0  0  0  0  0
   22.9790   -8.2320   -4.8640 H   0  0  0  0  0  0  0  0  0  0  0  0
   23.3590   -8.1030   -3.2310 H   0  0  0  0  0  0  0  0  0  0  0  0
   23.4050   -9.7220   -1.4730 H   0  0  0  0  0  0  0  0  0  0  0  0
  1  2  2  3
  2  3  1  0
  3  4  1  0
  2  5  1  0
  5  6  1  0
  6  7  1  0
  7  8  1  0
  8  9  1  0
  8 10  1  0
 10 11  2  0
 10 12  1  0
  1 13  1  0
  3 14  1  0
  4 15  1  0
  5 16  1  0
  6 17  1  0
  6 18  1  0
  7 19  1  0
  7 20  1  0
  8 21  1  1
  9 22  1  0
  9 23  1  0
 12 24  1  0
M  END
>  <meeko>  (18) 
{"is_sidechain": [false], "free_energy": -5.85, "intermolecular_energy": -7.009, "internal_energy": -0.879}

$$$$
NNH_redock_run01
     RDKit          3D

 24 23  0  0  0  0  0  0  0  0999 V2000
   24.3700  -11.2380   -1.7030 N   0  0  0  0  0  0  0  0  0  0  0  0
   25.0070  -10.5920   -2.7020 C   0  0  0  0  0  0  0  0  0  0  0  0
   24.2340   -9.6620   -3.4540 N   0  0  0  0  0  0  0  0  0  0  0  0
   23.0000   -9.4750   -3.1630 O   0  0  0  0  0  0  0  0  0  0  0  0
   26.3170  -10.7780   -3.0220 N   0  0  0  0  0  0  0  0  0  0  0  0
   27.1150  -10.1290   -4.0870 C   0  0  0  0  0  0  0  0  0  0  0  0
   26.8680  -10.6290   -5.4710 C   0  0  0  0  0  0  0  0  0  0  0  0
   25.9670  -10.0060   -6.5150 C   0  0  2  0  0  0  0  0  0  0  0  0
   25.6960   -8.6480   -6.0740 N   0  0  0  0  0  0  0  0  0  0  0  0
   24.6800  -10.8310   -6.6860 C   0  0  0  0  0  0  0  0  0  0  0  0
   23.8370  -10.6640   -7.5440 O   0  0  0  0  0  0  0  0  0  0  0  0
   24.5770  -11.7990   -5.7480 O   0  0  0  0  0  0  0  0  0  0  0  0
   23.3750  -11.0460   -1.5180 H   0  0  0  0  0  0  0  0  0  0  0  0
   24.6670   -9.1400   -4.2290 H   0  0  0  0  0  0  0  0  0  0  0  0
   22.9230   -8.7350   -2.5100 H   0  0  0  0  0  0  0  0  0  0  0  0
   26.8220  -11.4640   -2.4440 H   0  0  0  0  0  0  0  0  0  0  0  0
   26.8898   -9.0524   -4.0706 H   0  0  0  0  0  0  0  0  0  0  0  0
   28.1656  -10.3662   -3.8636 H   0  0  0  0  0  0  0  0  0  0  0  0
   27.8620  -10.6676   -5.9405 H   0  0  0  0  0  0  0  0  0  0  0  0
   26.2729  -11.5231   -5.2334 H   0  0  0  0  0  0  0  0  0  0  0  0
   26.4468   -9.9907   -7.5047 H   0  0  0  0  0  0  0  0  0  0  0  0
   24.8310   -8.6360   -5.5150 H   0  0  0  0  0  0  0  0  0  0  0  0
   26.4810   -8.3110   -5.4990 H   0  0  0  0  0  0  0  0  0  0  0  0
   24.5080  -12.7490   -6.0220 H   0  0  0  0  0  0  0  0  0  0  0  0
  1  2  2  3
  2  3  1  0
  3  4  1  0
  2  5  1  0
  5  6  1  0
  6  7  1  0
  7  8  1  0
  8  9  1  0
  8 10  1  0
 10 11  2  0
 10 12  1  0
  1 13  1  0
  3 14  1  0
  4 15  1  0
  5 16  1  0
  6 17  1  0
  6 18  1  0
  7 19  1  0
  7 20  1  0
  8 21  1  6
  9 22  1  0
  9 23  1  0
 12 24  1  0
M  END
>  <meeko>  (19) 
{"is_sidechain": [false], "free_energy": -5.831, "intermolecular_energy": -7.132, "internal_energy": -0.73}

$$$$
NNH_redock_run01
     RDKit          3D

 24 23  0  0  0  0  0  0  0  0999 V2000
   24.4590  -11.2640   -1.8550 N   0  0  0  0  0  0  0  0  0  0  0  0
   25.1910  -10.4950   -2.6890 C   0  0  0  0  0  0  0  0  0  0  0  0
   26.5600  -10.3070   -2.3450 N   0  0  0  0  0  0  0  0  0  0  0  0
   27.0350  -10.8580   -1.2900 O   0  0  0  0  0  0  0  0  0  0  0  0
   24.7020   -9.9050   -3.8130 N   0  0  0  0  0  0  0  0  0  0  0  0
   25.4060   -9.0500   -4.7960 C   0  0  0  0  0  0  0  0  0  0  0  0
   25.6190   -9.6590   -6.1420 C   0  0  0  0  0  0  0  0  0  0  0  0
   24.8000  -10.7580   -6.7830 C   0  0  2  0  0  0  0  0  0  0  0  0
   24.9380  -11.9290   -5.9320 N   0  0  0  0  0  0  0  0  0  0  0  0
   25.2750  -11.0240   -8.2210 C   0  0  0  0  0  0  0  0  0  0  0  0
   24.7030  -11.7090   -9.0430 O   0  0  0  0  0  0  0  0  0  0  0  0
   26.4400  -10.3930   -8.4890 O   0  0  0  0  0  0  0  0  0  0  0  0
   24.8980  -11.6790   -1.0200 H   0  0  0  0  0  0  0  0  0  0  0  0
   27.1670   -9.7300   -2.9440 H   0  0  0  0  0  0  0  0  0  0  0  0
   27.3810  -10.1590   -0.6810 H   0  0  0  0  0  0  0  0  0  0  0  0
   23.7050  -10.0760   -4.0070 H   0  0  0  0  0  0  0  0  0  0  0  0
   24.8163   -8.1311   -4.9294 H   0  0  0  0  0  0  0  0  0  0  0  0
   26.4098   -8.8767   -4.3809 H   0  0  0  0  0  0  0  0  0  0  0  0
   25.5635   -8.8162   -6.8467 H   0  0  0  0  0  0  0  0  0  0  0  0
   26.5418  -10.2218   -5.9379 H   0  0  0  0  0  0  0  0  0  0  0  0
   23.7401  -10.4754   -6.8656 H   0  0  0  0  0  0  0  0  0  0  0  0
   24.0720  -12.0640   -5.3920 H   0  0  0  0  0  0  0  0  0  0  0  0
   25.1120  -12.7590   -6.5160 H   0  0  0  0  0  0  0  0  0  0  0  0
   27.2810  -10.7080   -8.0730 H   0  0  0  0  0  0  0  0  0  0  0  0
  1  2  2  3
  2  3  1  0
  3  4  1  0
  2  5  1  0
  5  6  1  0
  6  7  1  0
  7  8  1  0
  8  9  1  0
  8 10  1  0
 10 11  2  0
 10 12  1  0
  1 13  1  0
  3 14  1  0
  4 15  1  0
  5 16  1  0
  6 17  1  0
  6 18  1  0
  7 19  1  0
  7 20  1  0
  8 21  1  6
  9 22  1  0
  9 23  1  0
 12 24  1  0
M  END
>  <meeko>  (20) 
{"is_sidechain": [false], "free_energy": -5.741, "intermolecular_energy": -7.363, "internal_energy": -0.38}

$$$$
