NNH_redock_run02
     RDKit          3D

 24 23  0  0  0  0  0  0  0  0999 V2000
   25.8110  -16.4920   -5.1360 N   0  0  0  0  0  0  0  0  0  0  0  0
   25.0440  -15.4210   -4.8390 C   0  0  0  0  0  0  0  0  0  0  0  0
   23.6920  -15.6870   -4.4820 N   0  0  0  0  0  0  0  0  0  0  0  0
   23.2640  -16.8950   -4.4530 O   0  0  0  0  0  0  0  0  0  0  0  0
   25.4830  -14.1340   -4.8640 N   0  0  0  0  0  0  0  0  0  0  0  0
   24.7390  -12.8910   -4.5580 C   0  0  0  0  0  0  0  0  0  0  0  0
   25.5430  -11.7940   -3.9440 C   0  0  0  0  0  0  0  0  0  0  0  0
   25.0200  -10.6260   -3.1360 C   0  0  2  0  0  0  0  0  0  0  0  0
   24.4330  -11.1850   -1.9300 N   0  0  0  0  0  0  0  0  0  0  0  0
   24.0050   -9.8090   -3.9540 C   0  0  0  0  0  0  0  0  0  0  0  0
   24.1060   -9.5200   -5.1280 O   0  0  0  0  0  0  0  0  0  0  0  0
   22.9460   -9.4300   -3.2040 O   0  0  0  0  0  0  0  0  0  0  0  0
   25.4090  -17.4400   -5.0960 H   0  0  0  0  0  0  0  0  0  0  0  0
   23.0580  -14.9090   -4.2460 H   0  0  0  0  0  0  0  0  0  0  0  0
   23.4680  -17.2960   -3.5710 H   0  0  0  0  0  0  0  0  0  0  0  0
   26.4690  -14.0060   -5.1320 H   0  0  0  0  0  0  0  0  0  0  0  0
   24.3115  -12.5121   -5.4980 H   0  0  0  0  0  0  0  0  0  0  0  0
   23.9847  -13.1684   -3.8070 H   0  0  0  0  0  0  0  0  0  0  0  0
   26.2557  -12.3029   -3.2784 H   0  0  0  0  0  0  0  0  0  0  0  0
   25.8400  -11.2587   -4.8579 H   0  0  0  0  0  0  0  0  0  0  0  0
   25.8253   -9.9248   -2.8718 H   0  0  0  0  0  0  0  0  0  0  0  0
   24.1150  -10.4200   -1.3170 H   0  0  0  0  0  0  0  0  0  0  0  0
   23.6310  -11.7790   -2.1820 H   0  0  0  0  0  0  0  0  0  0  0  0
   22.4690   -8.5860   -3.4110 H   0  0  0  0  0  0  0  0  0  0  0  0
  1  2  2  3
  2  3  1  0
  3  4  1  0
  2  5  1  0
  5  6  1  0
  6  7  1  0
  7  8  1  0
  8  9  1  0
  8 10  1  0
 10 11  2  0
 10 12  1  0
  1 13  1  0
  3 14  1  0
  4 15  1  0
  5 16  1  0
  6 17  1  0
  6 18  1  0
  7 19  1  0
  7 20  1  0
  8 21  1  1
  9 22  1  0
  9 23  1  0
 12 24  1  0
M  END
>  <meeko>  (1) 
{"is_sidechain": [false], "free_energy": -7.935, "intermolecular_energy": -10.486, "internal_energy": -0.15}

$$$$
NNH_redock_run02
     RDKit          3D

 24 23  0  0  0  0  0  0  0  0999 V2000
   23.5370  -16.4680   -4.4610 N   0  0  0  0  0  0  0  0  0  0  0  0
   24.4710  -15.5300   -4.7300 C   0  0  0  0  0  0  0  0  0  0  0  0
   25.6530  -15.9790   -5.3840 N   0  0  0  0  0  0  0  0  0  0  0  0
   25.7840  -17.2170   -5.6870 O   0  0  0  0  0  0  0  0  0  0  0  0
   24.3450  -14.2130   -4.4150 N   0  0  0  0  0  0  0  0  0  0  0  0
   25.2950  -13.1030   -4.6610 C   0  0  0  0  0  0  0  0  0  0  0  0
   24.9630  -11.8120   -3.9900 C   0  0  0  0  0  0  0  0  0  0  0  0
   25.5130  -11.3030   -2.6750 C   0  0  2  0  0  0  0  0  0  0  0  0
   24.4210  -10.6170   -2.0060 N   0  0  0  0  0  0  0  0  0  0  0  0
   26.7220  -10.3810   -2.9110 C   0  0  0  0  0  0  0  0  0  0  0  0
   27.1360  -10.0150   -3.9920 O   0  0  0  0  0  0  0  0  0  0  0  0
   27.3020  -10.0060   -1.7490 O   0  0  0  0  0  0  0  0  0  0  0  0
   23.7010  -17.4490   -4.7290 H   0  0  0  0  0  0  0  0  0  0  0  0
   26.4010  -15.3090   -5.6140 H   0  0  0  0  0  0  0  0  0  0  0  0
   25.7720  -17.3190   -6.6720 H   0  0  0  0  0  0  0  0  0  0  0  0
   23.4690  -13.9500   -3.9410 H   0  0  0  0  0  0  0  0  0  0  0  0
   26.2873  -13.4221   -4.3095 H   0  0  0  0  0  0  0  0  0  0  0  0
   25.2506  -12.9017   -5.7415 H   0  0  0  0  0  0  0  0  0  0  0  0
   25.2211  -11.0355   -4.7251 H   0  0  0  0  0  0  0  0  0  0  0  0
   23.9322  -12.0345   -3.6771 H   0  0  0  0  0  0  0  0  0  0  0  0
   25.8819  -12.1264   -2.0458 H   0  0  0  0  0  0  0  0  0  0  0  0
   24.0630  -11.2070   -1.2410 H   0  0  0  0  0  0  0  0  0  0  0  0
   24.7610   -9.7240   -1.6210 H   0  0  0  0  0  0  0  0  0  0  0  0
   27.0620  -10.4670   -0.9050 H   0  0  0  0  0  0  0  0  0  0  0  0
  1  2  2  3
  2  3  1  0
  3  4  1  0
  2  5  1  0
  5  6  1  0
  6  7  1  0
  7  8  1  0
  8  9  1  0
  8 10  1  0
 10 11  2  0
 10 12  1  0
  1 13  1  0
  3 14  1  0
  4 15  1  0
  5 16  1  0
  6 17  1  0
  6 18  1  0
  7 19  1  0
  7 20  1  0
  8 21  1  1
  9 22  1  0
  9 23  1  0
 12 24  1  0
M  END
>  <meeko>  (2) 
{"is_sidechain": [false], "free_energy": -7.735, "intermolecular_energy": -10.224, "internal_energy": -0.148}

$$$$
NNH_redock_run02
     RDKit          3D

 24 23  0  0  0  0  0  0  0  0999 V2000
   25.8820  -16.5030   -5.1540 N   0  0  0  0  0  0  0  0  0  0  0  0
   25.0480  -15.4810   -4.8650 C   0  0  0  0  0  0  0  0  0  0  0  0
   23.7360  -15.8330   -4.4390 N   0  0  0  0  0  0  0  0  0  0  0  0
   23.4040  -17.0680   -4.3450 O   0  0  0  0  0  0  0  0  0  0  0  0
   25.3850  -14.1670   -4.9590 N   0  0  0  0  0  0  0  0  0  0  0  0
   24.5600  -12.9720   -4.6690 C   0  0  0  0  0  0  0  0  0  0  0  0
   25.2670  -11.6620   -4.7710 C   0  0  0  0  0  0  0  0  0  0  0  0
   25.0330  -10.4330   -3.9190 C   0  0  2  0  0  0  0  0  0  0  0  0
   25.9840   -9.4290   -4.3680 N   0  0  0  0  0  0  0  0  0  0  0  0
   25.1980  -10.7660   -2.4270 C   0  0  0  0  0  0  0  0  0  0  0  0
   26.1920  -11.2300   -1.9080 O   0  0  0  0  0  0  0  0  0  0  0  0
   24.0810  -10.4780   -1.7220 O   0  0  0  0  0  0  0  0  0  0  0  0
   25.5570  -17.4760   -5.0600 H   0  0  0  0  0  0  0  0  0  0  0  0
   23.0540  -15.0960   -4.2060 H   0  0  0  0  0  0  0  0  0  0  0  0
   24.1130  -17.6310   -4.7440 H   0  0  0  0  0  0  0  0  0  0  0  0
   26.3470  -13.9760   -5.2740 H   0  0  0  0  0  0  0  0  0  0  0  0
   23.7201  -12.9598   -5.3792 H   0  0  0  0  0  0  0  0  0  0  0  0
   24.2510  -13.0668   -3.6176 H   0  0  0  0  0  0  0  0  0  0  0  0
   26.3316  -11.9029   -4.6349 H   0  0  0  0  0  0  0  0  0  0  0  0
   24.8405  -11.3038   -5.7196 H   0  0  0  0  0  0  0  0  0  0  0  0
   24.0062  -10.0541   -4.0296 H   0  0  0  0  0  0  0  0  0  0  0  0
   26.2690   -9.6360   -5.3360 H   0  0  0  0  0  0  0  0  0  0  0  0
   25.5440   -8.4990   -4.3310 H   0  0  0  0  0  0  0  0  0  0  0  0
   23.3510  -11.1450   -1.6580 H   0  0  0  0  0  0  0  0  0  0  0  0
  1  2  2  3
  2  3  1  0
  3  4  1  0
  2  5  1  0
  5  6  1  0
  6  7  1  0
  7  8  1  0
  8  9  1  0
  8 10  1  0
 10 11  2  0
 10 12  1  0
  1 13  1  0
  3 14  1  0
  4 15  1  0
  5 16  1  0
  6 17  1  0
  6 18  1  0
  7 19  1  0
  7 20  1  0
  8 21  1  1
  9 22  1  0
  9 23  1  0
 12 24  1  0
M  END
>  <meeko>  (3) 
{"is_sidechain": [false], "free_energy": -7.67, "intermolecular_energy": -10.106, "internal_energy": -0.18}

$$$$
NNH_redock_run02
     RDKit          3D

 24 23  0  0  0  0  0  0  0  0999 V2000
   25.7540  -16.5150   -5.4360 N   0  0  0  0  0  0  0  0  0  0  0  0
   25.0770  -15.4640   -4.9270 C   0  0  0  0  0  0  0  0  0  0  0  0
   23.7660  -15.7270   -4.4380 N   0  0  0  0  0  0  0  0  0  0  0  0
   23.2900  -16.9160   -4.4960 O   0  0  0  0  0  0  0  0  0  0  0  0
   25.5690  -14.1970   -4.8580 N   0  0  0  0  0  0  0  0  0  0  0  0
   24.9230  -12.9760   -4.3230 C   0  0  0  0  0  0  0  0  0  0  0  0
   24.9000  -11.8040   -5.2460 C   0  0  0  0  0  0  0  0  0  0  0  0
   23.7400  -10.8640   -5.4930 C   0  0  2  0  0  0  0  0  0  0  0  0
   23.7900  -10.5030   -6.9000 N   0  0  0  0  0  0  0  0  0  0  0  0
   23.8290   -9.6350   -4.5730 C   0  0  0  0  0  0  0  0  0  0  0  0
   22.8890   -8.9910   -4.1540 O   0  0  0  0  0  0  0  0  0  0  0  0
   25.1090   -9.3310   -4.2640 O   0  0  0  0  0  0  0  0  0  0  0  0
   25.3170  -17.4480   -5.4560 H   0  0  0  0  0  0  0  0  0  0  0  0
   23.2010  -14.9640   -4.0390 H   0  0  0  0  0  0  0  0  0  0  0  0
   23.7750  -17.4970   -3.8570 H   0  0  0  0  0  0  0  0  0  0  0  0
   26.5210  -14.0690   -5.2290 H   0  0  0  0  0  0  0  0  0  0  0  0
   23.8828  -13.2270   -4.0681 H   0  0  0  0  0  0  0  0  0  0  0  0
   25.5295  -12.6676   -3.4587 H   0  0  0  0  0  0  0  0  0  0  0  0
   25.7214  -11.1573   -4.9040 H   0  0  0  0  0  0  0  0  0  0  0  0
   24.9054  -12.3361   -6.2087 H   0  0  0  0  0  0  0  0  0  0  0  0
   22.7769  -11.3422   -5.2613 H   0  0  0  0  0  0  0  0  0  0  0  0
   22.8710  -10.1450   -7.1950 H   0  0  0  0  0  0  0  0  0  0  0  0
   24.5040   -9.7750   -7.0420 H   0  0  0  0  0  0  0  0  0  0  0  0
   25.6640   -9.9780   -3.7600 H   0  0  0  0  0  0  0  0  0  0  0  0
  1  2  2  3
  2  3  1  0
  3  4  1  0
  2  5  1  0
  5  6  1  0
  6  7  1  0
  7  8  1  0
  8  9  1  0
  8 10  1  0
 10 11  2  0
 10 12  1  0
  1 13  1  0
  3 14  1  0
  4 15  1  0
  5 16  1  0
  6 17  1  0
  6 18  1  0
  7 19  1  0
  7 20  1  0
  8 21  1  6
  9 22  1  0
  9 23  1  0
 12 24  1  0
M  END
>  <meeko>  (4) 
{"is_sidechain": [false], "free_energy": -7.542, "intermolecular_energy": -9.963, "internal_energy": -0.155}

$$$$
NNH_redock_run02
     RDKit          3D

 24 23  0  0  0  0  0  0  0  0999 V2000
   25.7840  -16.5010   -5.2460 N   0  0  0  0  0  0  0  0  0  0  0  0
   25.0440  -15.4440   -4.8470 C   0  0  0  0  0  0  0  0  0  0  0  0
   23.7020  -15.7180   -4.4590 N   0  0  0  0  0  0  0  0  0  0  0  0
   23.2580  -16.9200   -4.4980 O   0  0  0  0  0  0  0  0  0  0  0  0
   25.5010  -14.1640   -4.7990 N   0  0  0  0  0  0  0  0  0  0  0  0
   24.7860  -12.9360   -4.3800 C   0  0  0  0  0  0  0  0  0  0  0  0
   25.4280  -11.6500   -4.7810 C   0  0  0  0  0  0  0  0  0  0  0  0
   24.7340  -10.3320   -5.0480 C   0  0  2  0  0  0  0  0  0  0  0  0
   24.2750   -9.8360   -3.7610 N   0  0  0  0  0  0  0  0  0  0  0  0
   23.5790  -10.5170   -6.0470 C   0  0  0  0  0  0  0  0  0  0  0  0
   23.6940  -10.6780   -7.2440 O   0  0  0  0  0  0  0  0  0  0  0  0
   22.3750  -10.4800   -5.4340 O   0  0  0  0  0  0  0  0  0  0  0  0
   25.3710  -17.4440   -5.2570 H   0  0  0  0  0  0  0  0  0  0  0  0
   23.0890  -14.9510   -4.1460 H   0  0  0  0  0  0  0  0  0  0  0  0
   22.4850  -16.9660   -5.1150 H   0  0  0  0  0  0  0  0  0  0  0  0
   26.4780  -14.0290   -5.0940 H   0  0  0  0  0  0  0  0  0  0  0  0
   23.7784  -12.9636   -4.8205 H   0  0  0  0  0  0  0  0  0  0  0  0
   24.7896  -12.9451   -3.2800 H   0  0  0  0  0  0  0  0  0  0  0  0
   26.1518  -11.4328   -3.9816 H   0  0  0  0  0  0  0  0  0  0  0  0
   25.7180  -11.9096   -5.8098 H   0  0  0  0  0  0  0  0  0  0  0  0
   25.4158   -9.6031   -5.5104 H   0  0  0  0  0  0  0  0  0  0  0  0
   25.0870   -9.6530   -3.1550 H   0  0  0  0  0  0  0  0  0  0  0  0
   23.7450   -8.9640   -3.8990 H   0  0  0  0  0  0  0  0  0  0  0  0
   22.3090  -10.6500   -4.4600 H   0  0  0  0  0  0  0  0  0  0  0  0
  1  2  2  3
  2  3  1  0
  3  4  1  0
  2  5  1  0
  5  6  1  0
  6  7  1  0
  7  8  1  0
  8  9  1  0
  8 10  1  0
 10 11  2  0
 10 12  1  0
  1 13  1  0
  3 14  1  0
  4 15  1  0
  5 16  1  0
  6 17  1  0
  6 18  1  0
  7 19  1  0
  7 20  1  0
  8 21  1  6
  9 22  1  0
  9 23  1  0
 12 24  1  0
M  END
>  <meeko>  (5) 
{"is_sidechain": [false], "free_energy": -7.541, "intermolecular_energy": -9.933, "internal_energy": -0.184}

$$$$
NNH_redock_run02
     RDKit          3D

 24 23  0  0  0  0  0  0  0  0999 V2000
   21.4850   -8.8460   -4.1270 N   0  0  0  0  0  0  0  0  0  0  0  0
   22.7540   -9.0020   -4.5620 C   0  0  0  0  0  0  0  0  0  0  0  0
   23.6280   -7.8930   -4.3830 N   0  0  0  0  0  0  0  0  0  0  0  0
   23.1950   -6.8200   -3.8300 O   0  0  0  0  0  0  0  0  0  0  0  0
   23.2280  -10.1340   -5.1490 N   0  0  0  0  0  0  0  0  0  0  0  0
   24.5900  -10.4160   -5.6580 C   0  0  0  0  0  0  0  0  0  0  0  0
   25.6200  -10.7020   -4.6170 C   0  0  0  0  0  0  0  0  0  0  0  0
   25.5450  -11.7500   -3.5280 C   0  0  2  0  0  0  0  0  0  0  0  0
   24.7400  -12.8390   -4.0540 N   0  0  0  0  0  0  0  0  0  0  0  0
   24.9510  -11.1560   -2.2400 C   0  0  0  0  0  0  0  0  0  0  0  0
   24.2130  -10.1940   -2.1760 O   0  0  0  0  0  0  0  0  0  0  0  0
   25.3480  -11.8380   -1.1430 O   0  0  0  0  0  0  0  0  0  0  0  0
   21.1950   -7.9580   -3.6920 H   0  0  0  0  0  0  0  0  0  0  0  0
   24.6080   -7.9530   -4.6960 H   0  0  0  0  0  0  0  0  0  0  0  0
   23.9400   -6.3660   -3.3630 H   0  0  0  0  0  0  0  0  0  0  0  0
   22.5480  -10.8990   -5.2530 H   0  0  0  0  0  0  0  0  0  0  0  0
   24.5287  -11.2902   -6.3229 H   0  0  0  0  0  0  0  0  0  0  0  0
   24.9194   -9.4960   -6.1630 H   0  0  0  0  0  0  0  0  0  0  0  0
   26.5336  -10.9430   -5.1803 H   0  0  0  0  0  0  0  0  0  0  0  0
   25.5061   -9.7976   -4.0013 H   0  0  0  0  0  0  0  0  0  0  0  0
   26.5443  -12.1193   -3.2542 H   0  0  0  0  0  0  0  0  0  0  0  0
   25.3540  -13.6210   -4.3240 H   0  0  0  0  0  0  0  0  0  0  0  0
   24.0780  -13.1570   -3.3320 H   0  0  0  0  0  0  0  0  0  0  0  0
   26.3090  -12.0350   -1.0030 H   0  0  0  0  0  0  0  0  0  0  0  0
  1  2  2  3
  2  3  1  0
  3  4  1  0
  2  5  1  0
  5  6  1  0
  6  7  1  0
  7  8  1  0
  8  9  1  0
  8 10  1  0
 10 11  2  0
 10 12  1  0
  1 13  1  0
  3 14  1  0
  4 15  1  0
  5 16  1  0
  6 17  1  0
  6 18  1  0
  7 19  1  0
  7 20  1  0
  8 21  1  1
  9 22  1  0
  9 23  1  0
 12 24  1  0
M  END
>  <meeko>  (6) 
{"is_sidechain": [false], "free_energy": -6.956, "intermolecular_energy": -8.777, "internal_energy": -0.565}

$$$$
NNH_redock_run02
     RDKit          3D

 24 23  0  0  0  0  0  0  0  0999 V2000
   25.8040  -16.5850   -5.3600 N   0  0  0  0  0  0  0  0  0  0  0  0
   25.0950  -15.5160   -4.9410 C   0  0  0  0  0  0  0  0  0  0  0  0
   23.8010  -15.7780   -4.4080 N   0  0  0  0  0  0  0  0  0  0  0  0
   23.3690  -16.9840   -4.3450 O   0  0  0  0  0  0  0  0  0  0  0  0
   25.5400  -14.2310   -5.0000 N   0  0  0  0  0  0  0  0  0  0  0  0
   24.8570  -12.9890   -4.5720 C   0  0  0  0  0  0  0  0  0  0  0  0
   25.6230  -11.7270   -4.7870 C   0  0  0  0  0  0  0  0  0  0  0  0
   25.8530  -11.0160   -6.1030 C   0  0  2  0  0  0  0  0  0  0  0  0
   24.9620  -11.6340   -7.0700 N   0  0  0  0  0  0  0  0  0  0  0  0
   27.3290  -11.1140   -6.5240 C   0  0  0  0  0  0  0  0  0  0  0  0
   27.9630  -10.2520   -7.0980 O   0  0  0  0  0  0  0  0  0  0  0  0
   27.8710  -12.3030   -6.1790 O   0  0  0  0  0  0  0  0  0  0  0  0
   25.4020  -17.5310   -5.2840 H   0  0  0  0  0  0  0  0  0  0  0  0
   23.2140  -15.0010   -4.0730 H   0  0  0  0  0  0  0  0  0  0  0  0
   22.3900  -16.9760   -4.1990 H   0  0  0  0  0  0  0  0  0  0  0  0
   26.4820  -14.1050   -5.3970 H   0  0  0  0  0  0  0  0  0  0  0  0
   23.9129  -12.9117   -5.1312 H   0  0  0  0  0  0  0  0  0  0  0  0
   24.7224  -13.0784   -3.4839 H   0  0  0  0  0  0  0  0  0  0  0  0
   25.1295  -10.9826   -4.1448 H   0  0  0  0  0  0  0  0  0  0  0  0
   26.6407  -12.1046   -4.6090 H   0  0  0  0  0  0  0  0  0  0  0  0
   25.6349   -9.9407   -6.0248 H   0  0  0  0  0  0  0  0  0  0  0  0
   24.0100  -11.6790   -6.6800 H   0  0  0  0  0  0  0  0  0  0  0  0
   24.9520  -11.0750   -7.9350 H   0  0  0  0  0  0  0  0  0  0  0  0
   28.8520  -12.4340   -6.2310 H   0  0  0  0  0  0  0  0  0  0  0  0
  1  2  2  3
  2  3  1  0
  3  4  1  0
  2  5  1  0
  5  6  1  0
  6  7  1  0
  7  8  1  0
  8  9  1  0
  8 10  1  0
 10 11  2  0
 10 12  1  0
  1 13  1  0
  3 14  1  0
  4 15  1  0
  5 16  1  0
  6 17  1  0
  6 18  1  0
  7 19  1  0
  7 20  1  0
  8 21  1  1
  9 22  1  0
  9 23  1  0
 12 24  1  0
M  END
>  <meeko>  (7) 
{"is_sidechain": [false], "free_energy": -6.907, "intermolecular_energy": -8.764, "internal_energy": -0.514}

$$$$
NNH_redock_run02
     RDKit          3D

 24 23  0  0  0  0  0  0  0  0999 V2000
   23.2950   -6.9450   -4.0830 N   0  0  0  0  0  0  0  0  0  0  0  0
   23.7690   -8.1240   -4.5380 C   0  0  0  0  0  0  0  0  0  0  0  0
   22.8300   -9.1890   -4.6430 N   0  0  0  0  0  0  0  0  0  0  0  0
   21.6060   -8.9970   -4.3130 O   0  0  0  0  0  0  0  0  0  0  0  0
   25.0640   -8.3440   -4.8920 N   0  0  0  0  0  0  0  0  0  0  0  0
   25.6910   -9.5850   -5.4020 C   0  0  0  0  0  0  0  0  0  0  0  0
   26.2380  -10.5030   -4.3610 C   0  0  0  0  0  0  0  0  0  0  0  0
   25.4910  -11.6020   -3.6360 C   0  0  2  0  0  0  0  0  0  0  0  0
   24.4570  -12.0710   -4.5430 N   0  0  0  0  0  0  0  0  0  0  0  0
   24.9100  -11.0830   -2.3100 C   0  0  0  0  0  0  0  0  0  0  0  0
   24.1820  -10.1210   -2.1810 O   0  0  0  0  0  0  0  0  0  0  0  0
   25.3080  -11.8350   -1.2590 O   0  0  0  0  0  0  0  0  0  0  0  0
   22.3000   -6.8520   -3.8330 H   0  0  0  0  0  0  0  0  0  0  0  0
   23.1340  -10.1130   -4.9830 H   0  0  0  0  0  0  0  0  0  0  0  0
   21.0140   -9.3780   -5.0090 H   0  0  0  0  0  0  0  0  0  0  0  0
   25.6950   -7.5360   -4.7920 H   0  0  0  0  0  0  0  0  0  0  0  0
   24.9320  -10.1371   -5.9757 H   0  0  0  0  0  0  0  0  0  0  0  0
   26.5536   -9.2623   -6.0035 H   0  0  0  0  0  0  0  0  0  0  0  0
   27.0866  -11.0082   -4.8454 H   0  0  0  0  0  0  0  0  0  0  0  0
   26.3493   -9.7873   -3.5331 H   0  0  0  0  0  0  0  0  0  0  0  0
   26.1593  -12.4329   -3.3658 H   0  0  0  0  0  0  0  0  0  0  0  0
   24.7120  -11.8230   -5.5100 H   0  0  0  0  0  0  0  0  0  0  0  0
   24.3680  -13.0940   -4.4630 H   0  0  0  0  0  0  0  0  0  0  0  0
   24.6400  -12.1710   -0.6100 H   0  0  0  0  0  0  0  0  0  0  0  0
  1  2  2  3
  2  3  1  0
  3  4  1  0
  2  5  1  0
  5  6  1  0
  6  7  1  0
  7  8  1  0
  8  9  1  0
  8 10  1  0
 10 11  2  0
 10 12  1  0
  1 13  1  0
  3 14  1  0
  4 15  1  0
  5 16  1  0
  6 17  1  0
  6 18  1  0
  7 19  1  0
  7 20  1  0
  8 21  1  1
  9 22  1  0
  9 23  1  0
 12 24  1  0
M  END
>  <meeko>  (8) 
{"is_sidechain": [false], "free_energy": -6.853, "intermolecular_energy": -8.431, "internal_energy": -0.776}

$$$$
NNH_redock_run02
     RDKit          3D

 24 23  0  0  0  0  0  0  0  0999 V2000
   23.4180   -6.8120   -4.2000 N   0  0  0  0  0  0  0  0  0  0  0  0
   24.1760   -7.8490   -4.6150 C   0  0  0  0  0  0  0  0  0  0  0  0
   25.5210   -7.5510   -4.9740 N   0  0  0  0  0  0  0  0  0  0  0  0
   25.9520   -6.3470   -4.8900 O   0  0  0  0  0  0  0  0  0  0  0  0
   23.7330   -9.1320   -4.7080 N   0  0  0  0  0  0  0  0  0  0  0  0
   24.4680  -10.3410   -5.1460 C   0  0  0  0  0  0  0  0  0  0  0  0
   24.7620  -11.3380   -4.0750 C   0  0  0  0  0  0  0  0  0  0  0  0
   25.2980  -11.0520   -2.6880 C   0  0  2  0  0  0  0  0  0  0  0  0
   24.3180  -10.2030   -2.0320 N   0  0  0  0  0  0  0  0  0  0  0  0
   26.6840  -10.3900   -2.7660 C   0  0  0  0  0  0  0  0  0  0  0  0
   27.1710   -9.8750   -3.7510 O   0  0  0  0  0  0  0  0  0  0  0  0
   27.3310  -10.4420   -1.5810 O   0  0  0  0  0  0  0  0  0  0  0  0
   23.8210   -5.8650   -4.1550 H   0  0  0  0  0  0  0  0  0  0  0  0
   26.1460   -8.3020   -5.2990 H   0  0  0  0  0  0  0  0  0  0  0  0
   25.7400   -5.9820   -3.9940 H   0  0  0  0  0  0  0  0  0  0  0  0
   22.7510   -9.2840   -4.4380 H   0  0  0  0  0  0  0  0  0  0  0  0
   23.8666  -10.8416   -5.9191 H   0  0  0  0  0  0  0  0  0  0  0  0
   25.4455   -9.9864   -5.5048 H   0  0  0  0  0  0  0  0  0  0  0  0
   23.8106  -11.8644   -3.9085 H   0  0  0  0  0  0  0  0  0  0  0  0
   25.6514  -11.8133   -4.5144 H   0  0  0  0  0  0  0  0  0  0  0  0
   25.4405  -11.9774   -2.1106 H   0  0  0  0  0  0  0  0  0  0  0  0
   23.5480   -9.9980   -2.6850 H   0  0  0  0  0  0  0  0  0  0  0  0
   23.9450  -10.6860   -1.2030 H   0  0  0  0  0  0  0  0  0  0  0  0
   28.3200  -10.5020   -1.5590 H   0  0  0  0  0  0  0  0  0  0  0  0
  1  2  2  3
  2  3  1  0
  3  4  1  0
  2  5  1  0
  5  6  1  0
  6  7  1  0
  7  8  1  0
  8  9  1  0
  8 10  1  0
 10 11  2  0
 10 12  1  0
  1 13  1  0
  3 14  1  0
  4 15  1  0
  5 16  1  0
  6 17  1  0
  6 18  1  0
  7 19  1  0
  7 20  1  0
  8 21  1  1
  9 22  1  0
  9 23  1  0
 12 24  1  0
M  END
>  <meeko>  (9) 
{"is_sidechain": [false], "free_energy": -6.509, "intermolecular_energy": -8.235, "internal_energy": -0.518}

$$$$
NNH_redock_run02
     RDKit          3D

 24 23  0  0  0  0  0  0  0  0999 V2000
   22.2910   -8.8710   -3.9480 N   0  0  0  0  0  0  0  0  0  0  0  0
   23.5870   -8.7650   -4.3110 C   0  0  0  0  0  0  0  0  0  0  0  0
   24.0600   -7.4560   -4.6080 N   0  0  0  0  0  0  0  0  0  0  0  0
   23.2640   -6.4540   -4.5200 O   0  0  0  0  0  0  0  0  0  0  0  0
   24.4430   -9.8180   -4.4080 N   0  0  0  0  0  0  0  0  0  0  0  0
   25.8740   -9.8210   -4.7920 C   0  0  0  0  0  0  0  0  0  0  0  0
   26.5110  -11.1670   -4.8860 C   0  0  0  0  0  0  0  0  0  0  0  0
   26.0260  -12.3480   -5.6980 C   0  0  2  0  0  0  0  0  0  0  0  0
   25.1980  -11.8080   -6.7630 N   0  0  0  0  0  0  0  0  0  0  0  0
   25.2570  -13.3410   -4.8100 C   0  0  0  0  0  0  0  0  0  0  0  0
   24.9180  -14.4630   -5.1260 O   0  0  0  0  0  0  0  0  0  0  0  0
   24.9870  -12.8190   -3.5920 O   0  0  0  0  0  0  0  0  0  0  0  0
   21.7010   -8.0280   -3.8960 H   0  0  0  0  0  0  0  0  0  0  0  0
   25.0400   -7.3130   -4.8920 H   0  0  0  0  0  0  0  0  0  0  0  0
   23.0280   -6.3030   -3.5700 H   0  0  0  0  0  0  0  0  0  0  0  0
   24.0420  -10.7390   -4.1830 H   0  0  0  0  0  0  0  0  0  0  0  0
   25.9622   -9.3350   -5.7748 H   0  0  0  0  0  0  0  0  0  0  0  0
   26.4040   -9.2917   -3.9864 H   0  0  0  0  0  0  0  0  0  0  0  0
   27.5313  -10.9732   -5.2487 H   0  0  0  0  0  0  0  0  0  0  0  0
   26.2848  -11.5410   -3.8766 H   0  0  0  0  0  0  0  0  0  0  0  0
   26.8658  -12.9158   -6.1251 H   0  0  0  0  0  0  0  0  0  0  0  0
   24.2090  -12.0230   -6.5720 H   0  0  0  0  0  0  0  0  0  0  0  0
   25.3250  -10.7880   -6.8130 H   0  0  0  0  0  0  0  0  0  0  0  0
   25.6930  -12.3400   -3.0910 H   0  0  0  0  0  0  0  0  0  0  0  0
  1  2  2  3
  2  3  1  0
  3  4  1  0
  2  5  1  0
  5  6  1  0
  6  7  1  0
  7  8  1  0
  8  9  1  0
  8 10  1  0
 10 11  2  0
 10 12  1  0
  1 13  1  0
  3 14  1  0
  4 15  1  0
  5 16  1  0
  6 17  1  0
  6 18  1  0
  7 19  1  0
  7 20  1  0
  8 21  1  6
  9 22  1  0
  9 23  1  0
 12 24  1  0
M  END
>  <meeko>  (10) 
{"is_sidechain": [false], "free_energy": -6.41, "intermolecular_energy": -8.077, "internal_energy": -0.544}

$$$$
NNH_redock_run02
     RDKit          3D

 24 23  0  0  0  0  0  0  0  0999 V2000
   24.2340  -10.6720   -1.7020 N   0  0  0  0  0  0  0  0  0  0  0  0
   24.7990  -10.3540   -2.8860 C   0  0  0  0  0  0  0  0  0  0  0  0
   24.0080   -9.5800   -3.7820 N   0  0  0  0  0  0  0  0  0  0  0  0
   22.8250   -9.2220   -3.4420 O   0  0  0  0  0  0  0  0  0  0  0  0
   26.0530  -10.7260   -3.2600 N   0  0  0  0  0  0  0  0  0  0  0  0
   26.7720  -10.4360   -4.5230 C   0  0  0  0  0  0  0  0  0  0  0  0
   26.9520  -11.5980   -5.4420 C   0  0  0  0  0  0  0  0  0  0  0  0
   25.8610  -12.3950   -6.1240 C   0  0  2  0  0  0  0  0  0  0  0  0
   24.6970  -11.5280   -6.1990 N   0  0  0  0  0  0  0  0  0  0  0  0
   25.5710  -13.6940   -5.3510 C   0  0  0  0  0  0  0  0  0  0  0  0
   25.8770  -14.8140   -5.7040 O   0  0  0  0  0  0  0  0  0  0  0  0
   24.9150  -13.4530   -4.1940 O   0  0  0  0  0  0  0  0  0  0  0  0
   23.2780  -10.3550   -1.4870 H   0  0  0  0  0  0  0  0  0  0  0  0
   24.3860   -9.3080   -4.7000 H   0  0  0  0  0  0  0  0  0  0  0  0
   22.1960   -9.4220   -4.1790 H   0  0  0  0  0  0  0  0  0  0  0  0
   26.5750  -11.2870   -2.5720 H   0  0  0  0  0  0  0  0  0  0  0  0
   26.2086   -9.6609   -5.0632 H   0  0  0  0  0  0  0  0  0  0  0  0
   27.7851  -10.1244   -4.2287 H   0  0  0  0  0  0  0  0  0  0  0  0
   27.5798  -11.2174   -6.2612 H   0  0  0  0  0  0  0  0  0  0  0  0
   27.2921  -12.3492   -4.7140 H   0  0  0  0  0  0  0  0  0  0  0  0
   26.1621  -12.7081   -7.1346 H   0  0  0  0  0  0  0  0  0  0  0  0
   24.3840  -11.2910   -5.2460 H   0  0  0  0  0  0  0  0  0  0  0  0
   24.9440  -10.6650   -6.7030 H   0  0  0  0  0  0  0  0  0  0  0  0
   25.3740  -13.5870   -3.3270 H   0  0  0  0  0  0  0  0  0  0  0  0
  1  2  2  3
  2  3  1  0
  3  4  1  0
  2  5  1  0
  5  6  1  0
  6  7  1  0
  7  8  1  0
  8  9  1  0
  8 10  1  0
 10 11  2  0
 10 12  1  0
  1 13  1  0
  3 14  1  0
  4 15  1  0
  5 16  1  0
  6 17  1  0
  6 18  1  0
  7 19  1  0
  7 20  1  0
  8 21  1  6
  9 22  1  0
  9 23  1  0
 12 24  1  0
M  END
>  <meeko>  (11) 
{"is_sidechain": [false], "free_energy": -6.389, "intermolecular_energy": -7.705, "internal_energy": -0.889}

$$$$
NNH_redock_run02
     RDKit          3D

 24 23  0  0  0  0  0  0  0  0999 V2000
   24.6610  -11.5630   -1.7140 N   0  0  0  0  0  0  0  0  0  0  0  0
   25.2010  -10.6780   -2.5780 C   0  0  0  0  0  0  0  0  0  0  0  0
   26.5360  -10.2620   -2.3120 N   0  0  0  0  0  0  0  0  0  0  0  0
   27.1600  -10.7300   -1.2940 O   0  0  0  0  0  0  0  0  0  0  0  0
   24.5530  -10.1740   -3.6630 N   0  0  0  0  0  0  0  0  0  0  0  0
   25.0420   -9.2070   -4.6720 C   0  0  0  0  0  0  0  0  0  0  0  0
   25.7160   -9.8050   -5.8610 C   0  0  0  0  0  0  0  0  0  0  0  0
   25.2710  -11.0220   -6.6430 C   0  0  2  0  0  0  0  0  0  0  0  0
   23.8240  -10.9410   -6.7480 N   0  0  0  0  0  0  0  0  0  0  0  0
   25.7340  -12.3140   -5.9490 C   0  0  0  0  0  0  0  0  0  0  0  0
   26.8400  -12.8080   -6.0300 O   0  0  0  0  0  0  0  0  0  0  0  0
   24.7460  -12.8680   -5.2100 O   0  0  0  0  0  0  0  0  0  0  0  0
   25.2130  -11.9030   -0.9120 H   0  0  0  0  0  0  0  0  0  0  0  0
   27.0010   -9.5870   -2.9360 H   0  0  0  0  0  0  0  0  0  0  0  0
   28.1360  -10.6330   -1.4320 H   0  0  0  0  0  0  0  0  0  0  0  0
   23.5900  -10.5110   -3.8010 H   0  0  0  0  0  0  0  0  0  0  0  0
   24.1799   -8.6242   -5.0286 H   0  0  0  0  0  0  0  0  0  0  0  0
   25.8070   -8.6015   -4.1640 H   0  0  0  0  0  0  0  0  0  0  0  0
   25.7589   -8.9924   -6.6012 H   0  0  0  0  0  0  0  0  0  0  0  0
   26.6042  -10.2265   -5.3677 H   0  0  0  0  0  0  0  0  0  0  0  0
   25.7202  -11.0442   -7.6469 H   0  0  0  0  0  0  0  0  0  0  0  0
   23.5700  -10.4730   -7.6300 H   0  0  0  0  0  0  0  0  0  0  0  0
   23.4250  -11.8910   -6.7370 H   0  0  0  0  0  0  0  0  0  0  0  0
   23.8810  -13.0990   -5.6340 H   0  0  0  0  0  0  0  0  0  0  0  0
  1  2  2  3
  2  3  1  0
  3  4  1  0
  2  5  1  0
  5  6  1  0
  6  7  1  0
  7  8  1  0
  8  9  1  0
  8 10  1  0
 10 11  2  0
 10 12  1  0
  1 13  1  0
  3 14  1  0
  4 15  1  0
  5 16  1  0
  6 17  1  0
  6 18  1  0
  7 19  1  0
  7 20  1  0
  8 21  1  6
  9 22  1  0
  9 23  1  0
 12 24  1  0
M  END
>  <meeko>  (12) 
{"is_sidechain": [false], "free_energy": -6.378, "intermolecular_energy": -7.967, "internal_energy": -0.612}

$$$$
NNH_redock_run02
     RDKit          3D

 24 23  0  0  0  0  0  0  0  0999 V2000
   23.3770   -6.7960   -3.9380 N   0  0  0  0  0  0  0  0  0  0  0  0
   23.6400   -8.0390   -4.3930 C   0  0  0  0  0  0  0  0  0  0  0  0
   22.6480   -9.0300   -4.1460 N   0  0  0  0  0  0  0  0  0  0  0  0
   21.5740   -8.7160   -3.5220 O   0  0  0  0  0  0  0  0  0  0  0  0
   24.7750   -8.3870   -5.0580 N   0  0  0  0  0  0  0  0  0  0  0  0
   25.1670   -9.7080   -5.6010 C   0  0  0  0  0  0  0  0  0  0  0  0
   25.6400  -10.7020   -4.5940 C   0  0  0  0  0  0  0  0  0  0  0  0
   24.8840  -11.9100   -4.0840 C   0  0  2  0  0  0  0  0  0  0  0  0
   25.1710  -12.0100   -2.6630 N   0  0  0  0  0  0  0  0  0  0  0  0
   25.2970  -13.1760   -4.8530 C   0  0  0  0  0  0  0  0  0  0  0  0
   26.3150  -13.3140   -5.5000 O   0  0  0  0  0  0  0  0  0  0  0  0
   24.3770  -14.1590   -4.7320 O   0  0  0  0  0  0  0  0  0  0  0  0
   22.4950   -6.6050   -3.4410 H   0  0  0  0  0  0  0  0  0  0  0  0
   22.7940   -9.9970   -4.4690 H   0  0  0  0  0  0  0  0  0  0  0  0
   21.4000   -9.3810   -2.8090 H   0  0  0  0  0  0  0  0  0  0  0  0
   25.4550   -7.6280   -5.2040 H   0  0  0  0  0  0  0  0  0  0  0  0
   24.2936  -10.1358   -6.1150 H   0  0  0  0  0  0  0  0  0  0  0  0
   26.0238   -9.5194   -6.2645 H   0  0  0  0  0  0  0  0  0  0  0  0
   26.5734  -11.1071   -5.0119 H   0  0  0  0  0  0  0  0  0  0  0  0
   25.5998  -10.0737   -3.6920 H   0  0  0  0  0  0  0  0  0  0  0  0
   23.8005  -11.8045   -4.2421 H   0  0  0  0  0  0  0  0  0  0  0  0
   25.5400  -12.9490   -2.4530 H   0  0  0  0  0  0  0  0  0  0  0  0
   25.8710  -11.3010   -2.4030 H   0  0  0  0  0  0  0  0  0  0  0  0
   23.4710  -14.0390   -5.1130 H   0  0  0  0  0  0  0  0  0  0  0  0
  1  2  2  3
  2  3  1  0
  3  4  1  0
  2  5  1  0
  5  6  1  0
  6  7  1  0
  7  8  1  0
  8  9  1  0
  8 10  1  0
 10 11  2  0
 10 12  1  0
  1 13  1  0
  3 14  1  0
  4 15  1  0
  5 16  1  0
  6 17  1  0
  6 18  1  0
  7 19  1  0
  7 20  1  0
  8 21  1  1
  9 22  1  0
  9 23  1  0
 12 24  1  0
M  END
>  <meeko>  (13) 
{"is_sidechain": [false], "free_energy": -6.332, "intermolecular_energy": -8.345, "internal_energy": -0.173}

$$$$
NNH_redock_run02
     RDKit          3D

 24 23  0  0  0  0  0  0  0  0999 V2000
   28.5720   -9.8090   -3.5440 N   0  0  0  0  0  0  0  0  0  0  0  0
   27.2320   -9.9770   -3.5350 C   0  0  0  0  0  0  0  0  0  0  0  0
   26.6460  -10.3520   -2.2940 N   0  0  0  0  0  0  0  0  0  0  0  0
   27.3860  -10.5110   -1.2600 O   0  0  0  0  0  0  0  0  0  0  0  0
   26.4330   -9.8110   -4.6240 N   0  0  0  0  0  0  0  0  0  0  0  0
   24.9640   -9.9650   -4.7320 C   0  0  0  0  0  0  0  0  0  0  0  0
   24.4950  -11.2430   -5.3420 C   0  0  0  0  0  0  0  0  0  0  0  0
   24.6830  -12.6380   -4.7880 C   0  0  2  0  0  0  0  0  0  0  0  0
   24.9980  -12.4860   -3.3780 N   0  0  0  0  0  0  0  0  0  0  0  0
   25.7890  -13.3840   -5.5550 C   0  0  0  0  0  0  0  0  0  0  0  0
   25.7320  -14.5320   -5.9460 O   0  0  0  0  0  0  0  0  0  0  0  0
   26.8730  -12.6020   -5.7580 O   0  0  0  0  0  0  0  0  0  0  0  0
   29.1140   -9.9520   -2.6790 H   0  0  0  0  0  0  0  0  0  0  0  0
   25.6280  -10.4960   -2.2270 H   0  0  0  0  0  0  0  0  0  0  0  0
   27.6190  -11.4680   -1.1650 H   0  0  0  0  0  0  0  0  0  0  0  0
   26.9160   -9.5420   -5.4930 H   0  0  0  0  0  0  0  0  0  0  0  0
   24.5409   -9.8978   -3.7189 H   0  0  0  0  0  0  0  0  0  0  0  0
   24.6256   -9.1659   -5.4080 H   0  0  0  0  0  0  0  0  0  0  0  0
   23.4066  -11.1241   -5.4477 H   0  0  0  0  0  0  0  0  0  0  0  0
   25.1871  -11.2965   -6.1953 H   0  0  0  0  0  0  0  0  0  0  0  0
   23.7737  -13.2455   -4.9067 H   0  0  0  0  0  0  0  0  0  0  0  0
   24.3730  -11.7820   -2.9610 H   0  0  0  0  0  0  0  0  0  0  0  0
   24.8680  -13.3880   -2.8980 H   0  0  0  0  0  0  0  0  0  0  0  0
   27.0370  -12.2060   -6.6510 H   0  0  0  0  0  0  0  0  0  0  0  0
  1  2  2  3
  2  3  1  0
  3  4  1  0
  2  5  1  0
  5  6  1  0
  6  7  1  0
  7  8  1  0
  8  9  1  0
  8 10  1  0
 10 11  2  0
 10 12  1  0
  1 13  1  0
  3 14  1  0
  4 15  1  0
  5 16  1  0
  6 17  1  0
  6 18  1  0
  7 19  1  0
  7 20  1  0
  8 21  1  1
  9 22  1  0
  9 23  1  0
 12 24  1  0
M  END
>  <meeko>  (14) 
{"is_sidechain": [false], "free_energy": -6.283, "intermolecular_energy": -7.636, "internal_energy": -0.818}

$$$$
NNH_redock_run02
     RDKit          3D

 24 23  0  0  0  0  0  0  0  0999 V2000
   27.5210   -9.9930   -1.6580 N   0  0  0  0  0  0  0  0  0  0  0  0
   26.8340  -10.5180   -2.6950 C   0  0  0  0  0  0  0  0  0  0  0  0
   25.7720  -11.4090   -2.3690 N   0  0  0  0  0  0  0  0  0  0  0  0
   25.5120  -11.6710   -1.1410 O   0  0  0  0  0  0  0  0  0  0  0  0
   27.0970  -10.2490   -4.0020 N   0  0  0  0  0  0  0  0  0  0  0  0
   26.4140  -10.7610   -5.2130 C   0  0  0  0  0  0  0  0  0  0  0  0
   25.1230  -10.0950   -5.5530 C   0  0  0  0  0  0  0  0  0  0  0  0
   23.7430  -10.4820   -5.0650 C   0  0  2  0  0  0  0  0  0  0  0  0
   22.8940  -10.5620   -6.2420 N   0  0  0  0  0  0  0  0  0  0  0  0
   23.2230   -9.4630   -4.0380 C   0  0  0  0  0  0  0  0  0  0  0  0
   22.6520   -8.4230   -4.2950 O   0  0  0  0  0  0  0  0  0  0  0  0
   23.4750   -9.8560   -2.7690 O   0  0  0  0  0  0  0  0  0  0  0  0
   27.2650  -10.2430   -0.6920 H   0  0  0  0  0  0  0  0  0  0  0  0
   25.2130  -11.8410   -3.1180 H   0  0  0  0  0  0  0  0  0  0  0  0
   25.7640  -10.8960   -0.5780 H   0  0  0  0  0  0  0  0  0  0  0  0
   27.8770   -9.6000   -4.1740 H   0  0  0  0  0  0  0  0  0  0  0  0
   27.0962  -10.6331   -6.0663 H   0  0  0  0  0  0  0  0  0  0  0  0
   26.1646  -11.8105   -4.9977 H   0  0  0  0  0  0  0  0  0  0  0  0
   25.2521   -9.0489   -5.2384 H   0  0  0  0  0  0  0  0  0  0  0  0
   25.0336  -10.4079   -6.6038 H   0  0  0  0  0  0  0  0  0  0  0  0
   23.7552  -11.4508   -4.5442 H   0  0  0  0  0  0  0  0  0  0  0  0
   21.9150  -10.3960   -5.9690 H   0  0  0  0  0  0  0  0  0  0  0  0
   23.1860   -9.8480   -6.9240 H   0  0  0  0  0  0  0  0  0  0  0  0
   23.9110   -9.2320   -2.1350 H   0  0  0  0  0  0  0  0  0  0  0  0
  1  2  2  3
  2  3  1  0
  3  4  1  0
  2  5  1  0
  5  6  1  0
  6  7  1  0
  7  8  1  0
  8  9  1  0
  8 10  1  0
 10 11  2  0
 10 12  1  0
  1 13  1  0
  3 14  1  0
  4 15  1  0
  5 16  1  0
  6 17  1  0
  6 18  1  0
  7 19  1  0
  7 20  1  0
  8 21  1  1
  9 22  1  0
  9 23  1  0
 12 24  1  0
M  END
>  <meeko>  (15) 
{"is_sidechain": [false], "free_energy": -6.262, "intermolecular_energy": -7.833, "internal_energy": -0.593}

$$$$
NNH_redock_run02
     RDKit          3D

 24 23  0  0  0  0  0  0  0  0999 V2000
   24.9320  -11.6940   -1.3910 N   0  0  0  0  0  0  0  0  0  0  0  0
   25.9670  -11.0960   -2.0170 C   0  0  0  0  0  0  0  0  0  0  0  0
   27.1670  -10.9490   -1.2640 N   0  0  0  0  0  0  0  0  0  0  0  0
   27.2200  -11.3780   -0.0570 O   0  0  0  0  0  0  0  0  0  0  0  0
   25.9270  -10.6370   -3.2970 N   0  0  0  0  0  0  0  0  0  0  0  0
   26.9930   -9.9710   -4.0800 C   0  0  0  0  0  0  0  0  0  0  0  0
   26.6240   -9.5920   -5.4760 C   0  0  0  0  0  0  0  0  0  0  0  0
   25.2380   -9.2780   -5.9960 C   0  0  2  0  0  0  0  0  0  0  0  0
   24.5110   -8.6660   -4.8960 N   0  0  0  0  0  0  0  0  0  0  0  0
   24.5480  -10.5510   -6.5140 C   0  0  0  0  0  0  0  0  0  0  0  0
   23.5740  -10.5880   -7.2370 O   0  0  0  0  0  0  0  0  0  0  0  0
   25.1590  -11.6700   -6.0660 O   0  0  0  0  0  0  0  0  0  0  0  0
   25.0350  -12.0170   -0.4180 H   0  0  0  0  0  0  0  0  0  0  0  0
   27.9900  -10.4990   -1.6880 H   0  0  0  0  0  0  0  0  0  0  0  0
   26.4970  -12.0380    0.0910 H   0  0  0  0  0  0  0  0  0  0  0  0
   25.0320  -10.7700   -3.7880 H   0  0  0  0  0  0  0  0  0  0  0  0
   27.2836   -9.0545   -3.5456 H   0  0  0  0  0  0  0  0  0  0  0  0
   27.8050  -10.7074   -4.1717 H   0  0  0  0  0  0  0  0  0  0  0  0
   27.2190   -8.6925   -5.6927 H   0  0  0  0  0  0  0  0  0  0  0  0
   26.7845  -10.5608   -5.9716 H   0  0  0  0  0  0  0  0  0  0  0  0
   25.2749   -8.5889   -6.8526 H   0  0  0  0  0  0  0  0  0  0  0  0
   23.5000   -8.8200   -5.0250 H   0  0  0  0  0  0  0  0  0  0  0  0
   24.8120   -9.0900   -4.0080 H   0  0  0  0  0  0  0  0  0  0  0  0
   26.0130  -11.6030   -5.5680 H   0  0  0  0  0  0  0  0  0  0  0  0
  1  2  2  3
  2  3  1  0
  3  4  1  0
  2  5  1  0
  5  6  1  0
  6  7  1  0
  7  8  1  0
  8  9  1  0
  8 10  1  0
 10 11  2  0
 10 12  1  0
  1 13  1  0
  3 14  1  0
  4 15  1  0
  5 16  1  0
  6 17  1  0
  6 18  1  0
  7 19  1  0
  7 20  1  0
  8 21  1  6
  9 22  1  0
  9 23  1  0
 12 24  1  0
M  END
>  <meeko>  (16) 
{"is_sidechain": [false], "free_energy": -6.114, "intermolecular_energy": -7.824, "internal_energy": -0.406}

$$$$
NNH_redock_run02
     RDKit          3D

 24 23  0  0  0  0  0  0  0  0999 V2000
   25.7640   -6.1270   -5.1450 N   0  0  0  0  0  0  0  0  0  0  0  0
   25.4490   -7.4390   -5.1240 C   0  0  0  0  0  0  0  0  0  0  0  0
   24.1210   -7.7690   -4.7290 N   0  0  0  0  0  0  0  0  0  0  0  0
   23.2970   -6.8370   -4.4190 O   0  0  0  0  0  0  0  0  0  0  0  0
   26.3110   -8.4390   -5.4520 N   0  0  0  0  0  0  0  0  0  0  0  0
   26.0770   -9.9020   -5.4670 C   0  0  0  0  0  0  0  0  0  0  0  0
   26.4360  -10.6230   -4.2110 C   0  0  0  0  0  0  0  0  0  0  0  0
   26.1410  -10.1830   -2.7940 C   0  0  2  0  0  0  0  0  0  0  0  0
   27.1240  -10.8330   -1.9440 N   0  0  0  0  0  0  0  0  0  0  0  0
   24.6990  -10.5440   -2.3990 C   0  0  0  0  0  0  0  0  0  0  0  0
   23.6950   -9.9770   -2.7780 O   0  0  0  0  0  0  0  0  0  0  0  0
   24.6600  -11.5990   -1.5550 O   0  0  0  0  0  0  0  0  0  0  0  0
   25.0580   -5.4240   -4.8840 H   0  0  0  0  0  0  0  0  0  0  0  0
   23.8230   -8.7540   -4.6930 H   0  0  0  0  0  0  0  0  0  0  0  0
   22.4650   -6.9440   -4.9440 H   0  0  0  0  0  0  0  0  0  0  0  0
   27.2570   -8.1380   -5.7270 H   0  0  0  0  0  0  0  0  0  0  0  0
   25.0078  -10.0722   -5.6616 H   0  0  0  0  0  0  0  0  0  0  0  0
   26.7395  -10.3057   -6.2468 H   0  0  0  0  0  0  0  0  0  0  0  0
   25.9619  -11.6111   -4.3057 H   0  0  0  0  0  0  0  0  0  0  0  0
   27.5248  -10.4670   -4.2220 H   0  0  0  0  0  0  0  0  0  0  0  0
   26.2151   -9.0907   -2.6875 H   0  0  0  0  0  0  0  0  0  0  0  0
   28.0710  -10.6130   -2.2840 H   0  0  0  0  0  0  0  0  0  0  0  0
   27.0200  -10.4950   -0.9770 H   0  0  0  0  0  0  0  0  0  0  0  0
   25.1600  -12.4260   -1.7720 H   0  0  0  0  0  0  0  0  0  0  0  0
  1  2  2  3
  2  3  1  0
  3  4  1  0
  2  5  1  0
  5  6  1  0
  6  7  1  0
  7  8  1  0
  8  9  1  0
  8 10  1  0
 10 11  2  0
 10 12  1  0
  1 13  1  0
  3 14  1  0
  4 15  1  0
  5 16  1  0
  6 17  1  0
  6 18  1  0
  7 19  1  0
  7 20  1  0
  8 21  1  6
  9 22  1  0
  9 23  1  0
 12 24  1  0
M  END
>  <meeko>  (17) 
{"is_sidechain": [false], "free_energy": -5.99, "intermolecular_energy": -7.505, "internal_energy": -0.561}

$$$$
NNH_redock_run02
     RDKit          3D

 24 23  0  0  0  0  0  0  0  0999 V2000
   24.5250  -11.3670   -1.6270 N   0  0  0  0  0  0  0  0  0  0  0  0
   25.2630  -11.5710   -2.7390 C   0  0  0  0  0  0  0  0  0  0  0  0
   26.4470  -10.7920   -2.8680 N   0  0  0  0  0  0  0  0  0  0  0  0
   26.7620   -9.9520   -1.9520 O   0  0  0  0  0  0  0  0  0  0  0  0
   24.9420  -12.4590   -3.7180 N   0  0  0  0  0  0  0  0  0  0  0  0
   25.6710  -12.7660   -4.9710 C   0  0  0  0  0  0  0  0  0  0  0  0
   25.5090  -11.7700   -6.0700 C   0  0  0  0  0  0  0  0  0  0  0  0
   24.5790  -10.5760   -6.0840 C   0  0  2  0  0  0  0  0  0  0  0  0
   23.8460  -10.6350   -7.3380 N   0  0  0  0  0  0  0  0  0  0  0  0
   25.3720   -9.2660   -5.9340 C   0  0  0  0  0  0  0  0  0  0  0  0
   25.9340   -8.6690   -6.8290 O   0  0  0  0  0  0  0  0  0  0  0  0
   25.3800   -8.8290   -4.6550 O   0  0  0  0  0  0  0  0  0  0  0  0
   24.8290  -10.6770   -0.9260 H   0  0  0  0  0  0  0  0  0  0  0  0
   27.0500  -10.9030   -3.6960 H   0  0  0  0  0  0  0  0  0  0  0  0
   26.2760  -10.1750   -1.1190 H   0  0  0  0  0  0  0  0  0  0  0  0
   24.0730  -12.9910   -3.5690 H   0  0  0  0  0  0  0  0  0  0  0  0
   26.7424  -12.8347   -4.7314 H   0  0  0  0  0  0  0  0  0  0  0  0
   25.2395  -13.7047   -5.3487 H   0  0  0  0  0  0  0  0  0  0  0  0
   26.5138  -11.3491   -6.2222 H   0  0  0  0  0  0  0  0  0  0  0  0
   24.9971  -12.4030   -6.8098 H   0  0  0  0  0  0  0  0  0  0  0  0
   23.8778  -10.6006   -5.2368 H   0  0  0  0  0  0  0  0  0  0  0  0
   24.3070  -10.0310   -8.0330 H   0  0  0  0  0  0  0  0  0  0  0  0
   23.8320  -11.6060   -7.6810 H   0  0  0  0  0  0  0  0  0  0  0  0
   24.5780   -8.3870   -4.2770 H   0  0  0  0  0  0  0  0  0  0  0  0
  1  2  2  3
  2  3  1  0
  3  4  1  0
  2  5  1  0
  5  6  1  0
  6  7  1  0
  7  8  1  0
  8  9  1  0
  8 10  1  0
 10 11  2  0
 10 12  1  0
  1 13  1  0
  3 14  1  0
  4 15  1  0
  5 16  1  0
  6 17  1  0
  6 18  1  0
  7 19  1  0
  7 20  1  0
  8 21  1  1
  9 22  1  0
  9 23  1  0
 12 24  1  0
M  END
>  <meeko>  (18) 
{"is_sidechain": [false], "free_energy": -5.986, "intermolecular_energy": -7.524, "internal_energy": -0.537}

$$$$
NNH_redock_run02
     RDKit          3D

 24 23  0  0  0  0  0  0  0  0999 V2000
   26.6210   -5.8940   -4.9030 N   0  0  0  0  0  0  0  0  0  0  0  0
   25.8830   -6.9390   -5.3360 C   0  0  0  0  0  0  0  0  0  0  0  0
   24.5000   -6.9240   -4.9970 N   0  0  0  0  0  0  0  0  0  0  0  0
   24.0200   -5.9510   -4.3160 O   0  0  0  0  0  0  0  0  0  0  0  0
   26.3780   -7.9780   -6.0600 N   0  0  0  0  0  0  0  0  0  0  0  0
   25.6680   -9.1670   -6.5870 C   0  0  0  0  0  0  0  0  0  0  0  0
   25.5010  -10.2940   -5.6240 C   0  0  0  0  0  0  0  0  0  0  0  0
   24.2220  -10.7190   -4.9350 C   0  0  2  0  0  0  0  0  0  0  0  0
   23.1870  -10.7340   -5.9530 N   0  0  0  0  0  0  0  0  0  0  0  0
   23.8860   -9.7670   -3.7750 C   0  0  0  0  0  0  0  0  0  0  0  0
   22.9910   -8.9470   -3.7650 O   0  0  0  0  0  0  0  0  0  0  0  0
   24.7200   -9.9410   -2.7250 O   0  0  0  0  0  0  0  0  0  0  0  0
   26.1770   -5.1410   -4.3570 H   0  0  0  0  0  0  0  0  0  0  0  0
   23.8870   -7.6950   -5.2990 H   0  0  0  0  0  0  0  0  0  0  0  0
   24.5450   -5.1310   -4.4950 H   0  0  0  0  0  0  0  0  0  0  0  0
   27.3850   -7.9330   -6.2720 H   0  0  0  0  0  0  0  0  0  0  0  0
   24.6668   -8.8476   -6.9119 H   0  0  0  0  0  0  0  0  0  0  0  0
   26.2952   -9.5567   -7.4023 H   0  0  0  0  0  0  0  0  0  0  0  0
   25.8392  -11.1868   -6.1705 H   0  0  0  0  0  0  0  0  0  0  0  0
   26.0356   -9.8708   -4.7608 H   0  0  0  0  0  0  0  0  0  0  0  0
   24.3190  -11.7175   -4.4837 H   0  0  0  0  0  0  0  0  0  0  0  0
   23.5140  -10.2170   -6.7820 H   0  0  0  0  0  0  0  0  0  0  0  0
   22.9770  -11.7070   -6.2160 H   0  0  0  0  0  0  0  0  0  0  0  0
   24.8530   -9.2090   -2.0710 H   0  0  0  0  0  0  0  0  0  0  0  0
  1  2  2  3
  2  3  1  0
  3  4  1  0
  2  5  1  0
  5  6  1  0
  6  7  1  0
  7  8  1  0
  8  9  1  0
  8 10  1  0
 10 11  2  0
 10 12  1  0
  1 13  1  0
  3 14  1  0
  4 15  1  0
  5 16  1  0
  6 17  1  0
  6 18  1  0
  7 19  1  0
  7 20  1  0
  8 21  1  1
  9 22  1  0
  9 23  1  0
 12 24  1  0
M  END
>  <meeko>  (19) 
{"is_sidechain": [false], "free_energy": -5.901, "intermolecular_energy": -7.493, "internal_energy": -0.456}

$$$$
NNH_redock_run02
     RDKit          3D

 24 23  0  0  0  0  0  0  0  0999 V2000
   23.8930   -6.3520   -4.6650 N   0  0  0  0  0  0  0  0  0  0  0  0
   24.4440   -7.5840   -4.6820 C   0  0  0  0  0  0  0  0  0  0  0  0
   23.5990   -8.6660   -4.3040 N   0  0  0  0  0  0  0  0  0  0  0  0
   22.3820   -8.4390   -3.9730 O   0  0  0  0  0  0  0  0  0  0  0  0
   25.7340   -7.8410   -5.0330 N   0  0  0  0  0  0  0  0  0  0  0  0
   26.4410   -9.1410   -5.0900 C   0  0  0  0  0  0  0  0  0  0  0  0
   26.3400   -9.8710   -6.3880 C   0  0  0  0  0  0  0  0  0  0  0  0
   25.2850  -10.8810   -6.7840 C   0  0  2  0  0  0  0  0  0  0  0  0
   24.0860  -10.1250   -7.1040 N   0  0  0  0  0  0  0  0  0  0  0  0
   25.0490  -11.8950   -5.6510 C   0  0  0  0  0  0  0  0  0  0  0  0
   24.4420  -11.6820   -4.6220 O   0  0  0  0  0  0  0  0  0  0  0  0
   25.6080  -13.0940   -5.9280 O   0  0  0  0  0  0  0  0  0  0  0  0
   22.9080   -6.2330   -4.3880 H   0  0  0  0  0  0  0  0  0  0  0  0
   23.9650   -9.6290   -4.2980 H   0  0  0  0  0  0  0  0  0  0  0  0
   21.8550   -8.2170   -4.7810 H   0  0  0  0  0  0  0  0  0  0  0  0
   26.2950   -7.0190   -5.2940 H   0  0  0  0  0  0  0  0  0  0  0  0
   27.5062   -8.9566   -4.8869 H   0  0  0  0  0  0  0  0  0  0  0  0
   25.9520   -9.7837   -4.3432 H   0  0  0  0  0  0  0  0  0  0  0  0
   26.2791   -9.0827   -7.1527 H   0  0  0  0  0  0  0  0  0  0  0  0
   27.2005  -10.5474   -6.2783 H   0  0  0  0  0  0  0  0  0  0  0  0
   25.6002  -11.4734   -7.6556 H   0  0  0  0  0  0  0  0  0  0  0  0
   23.8810  -10.2170   -8.1090 H   0  0  0  0  0  0  0  0  0  0  0  0
   23.2930  -10.4900   -6.5580 H   0  0  0  0  0  0  0  0  0  0  0  0
   25.7410  -13.3740   -6.8690 H   0  0  0  0  0  0  0  0  0  0  0  0
  1  2  2  3
  2  3  1  0
  3  4  1  0
  2  5  1  0
  5  6  1  0
  6  7  1  0
  7  8  1  0
  8  9  1  0
  8 10  1  0
 10 11  2  0
 10 12  1  0
  1 13  1  0
  3 14  1  0
  4 15  1  0
  5 16  1  0
  6 17  1  0
  6 18  1  0
  7 19  1  0
  7 20  1  0
  8 21  1  6
  9 22  1  0
  9 23  1  0
 12 24  1  0
M  END
>  <meeko>  (20) 
{"is_sidechain": [false], "free_energy": -5.67, "intermolecular_energy": -6.886, "internal_energy": -0.757}

$$$$
