NNH_redock_run03
     RDKit          3D

 24 23  0  0  0  0  0  0  0  0999 V2000
   25.8130  -16.5060   -5.1470 N   0  0  0  0  0  0  0  0  0  0  0  0
   25.0460  -15.4320   -4.8620 C   0  0  0  0  0  0  0  0  0  0  0  0
   23.6960  -15.6930   -4.4940 N   0  0  0  0  0  0  0  0  0  0  0  0
   23.2700  -16.9010   -4.4450 O   0  0  0  0  0  0  0  0  0  0  0  0
   25.4850  -14.1450   -4.9080 N   0  0  0  0  0  0  0  0  0  0  0  0
   24.7410  -12.8970   -4.6180 C   0  0  0  0  0  0  0  0  0  0  0  0
   25.5700  -11.7470   -4.1550 C   0  0  0  0  0  0  0  0  0  0  0  0
   25.1290  -10.6100   -3.2580 C   0  0  2  0  0  0  0  0  0  0  0  0
   24.6140  -11.2170   -2.0430 N   0  0  0  0  0  0  0  0  0  0  0  0
   24.0790   -9.7350   -3.9640 C   0  0  0  0  0  0  0  0  0  0  0  0
   24.1580   -9.3050   -5.0960 O   0  0  0  0  0  0  0  0  0  0  0  0
   23.0180   -9.4830   -3.1650 O   0  0  0  0  0  0  0  0  0  0  0  0
   25.4120  -17.4530   -5.0910 H   0  0  0  0  0  0  0  0  0  0  0  0
   23.0630  -14.9120   -4.2670 H   0  0  0  0  0  0  0  0  0  0  0  0
   23.3190  -17.3040   -5.3480 H   0  0  0  0  0  0  0  0  0  0  0  0
   26.4690  -14.0200   -5.1830 H   0  0  0  0  0  0  0  0  0  0  0  0
   24.2211  -12.5911   -5.5378 H   0  0  0  0  0  0  0  0  0  0  0  0
   24.0645  -13.1361   -3.7842 H   0  0  0  0  0  0  0  0  0  0  0  0
   26.4239  -12.2045   -3.6339 H   0  0  0  0  0  0  0  0  0  0  0  0
   25.6591  -11.1991   -5.1047 H   0  0  0  0  0  0  0  0  0  0  0  0
   25.9652   -9.9371   -3.0170 H   0  0  0  0  0  0  0  0  0  0  0  0
   25.3920  -11.6310   -1.5090 H   0  0  0  0  0  0  0  0  0  0  0  0
   24.1490  -10.4980   -1.4700 H   0  0  0  0  0  0  0  0  0  0  0  0
   22.1350   -9.8780   -3.3760 H   0  0  0  0  0  0  0  0  0  0  0  0
  1  2  2  3
  2  3  1  0
  3  4  1  0
  2  5  1  0
  5  6  1  0
  6  7  1  0
  7  8  1  0
  8  9  1  0
  8 10  1  0
 10 11  2  0
 10 12  1  0
  1 13  1  0
  3 14  1  0
  4 15  1  0
  5 16  1  0
  6 17  1  0
  6 18  1  0
  7 19  1  0
  7 20  1  0
  8 21  1  1
  9 22  1  0
  9 23  1  0
 12 24  1  0
M  END
>  <meeko>  (1) 
{"is_sidechain": [false], "free_energy": -7.832, "intermolecular_energy": -10.35, "internal_energy": -0.169}

$$$$
NNH_redock_run03
     RDKit          3D

 24 23  0  0  0  0  0  0  0  0999 V2000
   23.4870  -16.4970   -4.4750 N   0  0  0  0  0  0  0  0  0  0  0  0
   24.4260  -15.5570   -4.7140 C   0  0  0  0  0  0  0  0  0  0  0  0
   25.6290  -16.0010   -5.3330 N   0  0  0  0  0  0  0  0  0  0  0  0
   25.7730  -17.2390   -5.6330 O   0  0  0  0  0  0  0  0  0  0  0  0
   24.2870  -14.2400   -4.4030 N   0  0  0  0  0  0  0  0  0  0  0  0
   25.2410  -13.1270   -4.6180 C   0  0  0  0  0  0  0  0  0  0  0  0
   24.9050  -11.8490   -3.9260 C   0  0  0  0  0  0  0  0  0  0  0  0
   25.4210  -11.3790   -2.5830 C   0  0  2  0  0  0  0  0  0  0  0  0
   24.3440  -10.6240   -1.9660 N   0  0  0  0  0  0  0  0  0  0  0  0
   26.6990  -10.5400   -2.7530 C   0  0  0  0  0  0  0  0  0  0  0  0
   27.0820  -10.0310   -3.7850 O   0  0  0  0  0  0  0  0  0  0  0  0
   27.3790  -10.4220   -1.5910 O   0  0  0  0  0  0  0  0  0  0  0  0
   23.6620  -17.4780   -4.7380 H   0  0  0  0  0  0  0  0  0  0  0  0
   26.3820  -15.3290   -5.5390 H   0  0  0  0  0  0  0  0  0  0  0  0
   26.3890  -17.3220   -6.4030 H   0  0  0  0  0  0  0  0  0  0  0  0
   23.3970  -13.9800   -3.9550 H   0  0  0  0  0  0  0  0  0  0  0  0
   26.2292  -13.4547   -4.2630 H   0  0  0  0  0  0  0  0  0  0  0  0
   25.2072  -12.9047   -5.6948 H   0  0  0  0  0  0  0  0  0  0  0  0
   25.1949  -11.0584   -4.6338 H   0  0  0  0  0  0  0  0  0  0  0  0
   23.8626  -12.0657   -3.6496 H   0  0  0  0  0  0  0  0  0  0  0  0
   25.7031  -12.2257   -1.9399 H   0  0  0  0  0  0  0  0  0  0  0  0
   23.7040  -10.2790   -2.6960 H   0  0  0  0  0  0  0  0  0  0  0  0
   23.8260  -11.2310   -1.3150 H   0  0  0  0  0  0  0  0  0  0  0  0
   27.0060  -10.8060   -0.7570 H   0  0  0  0  0  0  0  0  0  0  0  0
  1  2  2  3
  2  3  1  0
  3  4  1  0
  2  5  1  0
  5  6  1  0
  6  7  1  0
  7  8  1  0
  8  9  1  0
  8 10  1  0
 10 11  2  0
 10 12  1  0
  1 13  1  0
  3 14  1  0
  4 15  1  0
  5 16  1  0
  6 17  1  0
  6 18  1  0
  7 19  1  0
  7 20  1  0
  8 21  1  1
  9 22  1  0
  9 23  1  0
 12 24  1  0
M  END
>  <meeko>  (2) 
{"is_sidechain": [false], "free_energy": -7.715, "intermolecular_energy": -10.217, "internal_energy": -0.147}

$$$$
NNH_redock_run03
     RDKit          3D

 24 23  0  0  0  0  0  0  0  0999 V2000
   25.7220  -16.5330   -5.4530 N   0  0  0  0  0  0  0  0  0  0  0  0
   25.0560  -15.4730   -4.9480 C   0  0  0  0  0  0  0  0  0  0  0  0
   23.7500  -15.7240   -4.4420 N   0  0  0  0  0  0  0  0  0  0  0  0
   23.2670  -16.9110   -4.4810 O   0  0  0  0  0  0  0  0  0  0  0  0
   25.5560  -14.2080   -4.8980 N   0  0  0  0  0  0  0  0  0  0  0  0
   24.9230  -12.9780   -4.3700 C   0  0  0  0  0  0  0  0  0  0  0  0
   24.8870  -11.8190   -5.3080 C   0  0  0  0  0  0  0  0  0  0  0  0
   23.7430  -10.8490   -5.5120 C   0  0  2  0  0  0  0  0  0  0  0  0
   23.7340  -10.5090   -6.9250 N   0  0  0  0  0  0  0  0  0  0  0  0
   23.9120   -9.6110   -4.6160 C   0  0  0  0  0  0  0  0  0  0  0  0
   23.0140   -8.9190   -4.1830 O   0  0  0  0  0  0  0  0  0  0  0  0
   25.2130   -9.3600   -4.3470 O   0  0  0  0  0  0  0  0  0  0  0  0
   25.2800  -17.4640   -5.4580 H   0  0  0  0  0  0  0  0  0  0  0  0
   23.1930  -14.9530   -4.0450 H   0  0  0  0  0  0  0  0  0  0  0  0
   22.2780  -16.8630   -4.5190 H   0  0  0  0  0  0  0  0  0  0  0  0
   26.5040  -14.0900   -5.2810 H   0  0  0  0  0  0  0  0  0  0  0  0
   23.8867  -13.2223   -4.0938 H   0  0  0  0  0  0  0  0  0  0  0  0
   25.5457  -12.6593   -3.5211 H   0  0  0  0  0  0  0  0  0  0  0  0
   25.7423  -11.1917   -5.0167 H   0  0  0  0  0  0  0  0  0  0  0  0
   24.8293  -12.3643   -6.2616 H   0  0  0  0  0  0  0  0  0  0  0  0
   22.7792  -11.2956   -5.2264 H   0  0  0  0  0  0  0  0  0  0  0  0
   22.7860  -10.6400   -7.3040 H   0  0  0  0  0  0  0  0  0  0  0  0
   24.0180   -9.5260   -7.0430 H   0  0  0  0  0  0  0  0  0  0  0  0
   25.5960   -9.6150   -3.4700 H   0  0  0  0  0  0  0  0  0  0  0  0
  1  2  2  3
  2  3  1  0
  3  4  1  0
  2  5  1  0
  5  6  1  0
  6  7  1  0
  7  8  1  0
  8  9  1  0
  8 10  1  0
 10 11  2  0
 10 12  1  0
  1 13  1  0
  3 14  1  0
  4 15  1  0
  5 16  1  0
  6 17  1  0
  6 18  1  0
  7 19  1  0
  7 20  1  0
  8 21  1  1
  9 22  1  0
  9 23  1  0
 12 24  1  0
M  END
>  <meeko>  (3) 
{"is_sidechain": [false], "free_energy": -7.537, "intermolecular_energy": -9.976, "internal_energy": -0.153}

$$$$
NNH_redock_run03
     RDKit          3D

 24 23  0  0  0  0  0  0  0  0999 V2000
   23.5380  -16.4840   -4.4430 N   0  0  0  0  0  0  0  0  0  0  0  0
   24.4780  -15.5610   -4.7360 C   0  0  0  0  0  0  0  0  0  0  0  0
   25.6510  -16.0320   -5.3910 N   0  0  0  0  0  0  0  0  0  0  0  0
   25.7690  -17.2770   -5.6730 O   0  0  0  0  0  0  0  0  0  0  0  0
   24.3670  -14.2360   -4.4440 N   0  0  0  0  0  0  0  0  0  0  0  0
   25.3250  -13.1400   -4.7170 C   0  0  0  0  0  0  0  0  0  0  0  0
   25.2980  -12.0060   -3.7480 C   0  0  0  0  0  0  0  0  0  0  0  0
   25.1440  -10.5360   -4.0730 C   0  0  2  0  0  0  0  0  0  0  0  0
   26.4330   -9.9160   -3.8140 N   0  0  0  0  0  0  0  0  0  0  0  0
   24.0170   -9.9080   -3.2360 C   0  0  0  0  0  0  0  0  0  0  0  0
   23.1560   -9.1590   -3.6500 O   0  0  0  0  0  0  0  0  0  0  0  0
   24.0830  -10.2890   -1.9400 O   0  0  0  0  0  0  0  0  0  0  0  0
   23.6910  -17.4720   -4.6940 H   0  0  0  0  0  0  0  0  0  0  0  0
   26.4030  -15.3730   -5.6390 H   0  0  0  0  0  0  0  0  0  0  0  0
   25.8300  -17.3880   -6.6550 H   0  0  0  0  0  0  0  0  0  0  0  0
   23.4980  -13.9570   -3.9680 H   0  0  0  0  0  0  0  0  0  0  0  0
   26.3388  -13.5668   -4.7107 H   0  0  0  0  0  0  0  0  0  0  0  0
   25.0284  -12.7148   -5.6872 H   0  0  0  0  0  0  0  0  0  0  0  0
   24.4653  -12.2347   -3.0666 H   0  0  0  0  0  0  0  0  0  0  0  0
   26.3541  -12.0101   -3.4404 H   0  0  0  0  0  0  0  0  0  0  0  0
   24.8573  -10.3830   -5.1239 H   0  0  0  0  0  0  0  0  0  0  0  0
   27.0640  -10.6050   -3.3810 H   0  0  0  0  0  0  0  0  0  0  0  0
   26.8400   -9.5880   -4.7010 H   0  0  0  0  0  0  0  0  0  0  0  0
   23.8180   -9.6570   -1.2240 H   0  0  0  0  0  0  0  0  0  0  0  0
  1  2  2  3
  2  3  1  0
  3  4  1  0
  2  5  1  0
  5  6  1  0
  6  7  1  0
  7  8  1  0
  8  9  1  0
  8 10  1  0
 10 11  2  0
 10 12  1  0
  1 13  1  0
  3 14  1  0
  4 15  1  0
  5 16  1  0
  6 17  1  0
  6 18  1  0
  7 19  1  0
  7 20  1  0
  8 21  1  6
  9 22  1  0
  9 23  1  0
 12 24  1  0
M  END
>  <meeko>  (4) 
{"is_sidechain": [false], "free_energy": -7.519, "intermolecular_energy": -9.985, "internal_energy": -0.12}

$$$$
NNH_redock_run03
     RDKit          3D

 24 23  0  0  0  0  0  0  0  0999 V2000
   23.4970  -16.5600   -4.4260 N   0  0  0  0  0  0  0  0  0  0  0  0
   24.3940  -15.6010   -4.7410 C   0  0  0  0  0  0  0  0  0  0  0  0
   25.5790  -16.0310   -5.4010 N   0  0  0  0  0  0  0  0  0  0  0  0
   25.7480  -17.2740   -5.6670 O   0  0  0  0  0  0  0  0  0  0  0  0
   24.2290  -14.2790   -4.4670 N   0  0  0  0  0  0  0  0  0  0  0  0
   25.1370  -13.1470   -4.7640 C   0  0  0  0  0  0  0  0  0  0  0  0
   24.8290  -11.8720   -4.0540 C   0  0  0  0  0  0  0  0  0  0  0  0
   24.6110  -10.5110   -4.6810 C   0  0  2  0  0  0  0  0  0  0  0  0
   24.2110   -9.6180   -3.6070 N   0  0  0  0  0  0  0  0  0  0  0  0
   23.5560  -10.5890   -5.7980 C   0  0  0  0  0  0  0  0  0  0  0  0
   23.7840  -10.7320   -6.9810 O   0  0  0  0  0  0  0  0  0  0  0  0
   22.3010  -10.4770   -5.3110 O   0  0  0  0  0  0  0  0  0  0  0  0
   23.6890  -17.5430   -4.6650 H   0  0  0  0  0  0  0  0  0  0  0  0
   26.3010  -15.3450   -5.6650 H   0  0  0  0  0  0  0  0  0  0  0  0
   26.7110  -17.4960   -5.6100 H   0  0  0  0  0  0  0  0  0  0  0  0
   23.3530  -14.0300   -3.9860 H   0  0  0  0  0  0  0  0  0  0  0  0
   26.1578  -13.4502   -4.4881 H   0  0  0  0  0  0  0  0  0  0  0  0
   25.0117  -12.9332   -5.8357 H   0  0  0  0  0  0  0  0  0  0  0  0
   23.9060  -12.0763   -3.4915 H   0  0  0  0  0  0  0  0  0  0  0  0
   25.8046  -11.6938   -3.5782 H   0  0  0  0  0  0  0  0  0  0  0  0
   25.5273  -10.1355   -5.1601 H   0  0  0  0  0  0  0  0  0  0  0  0
   23.3900   -9.0710   -3.9040 H   0  0  0  0  0  0  0  0  0  0  0  0
   23.9710  -10.1710   -2.7720 H   0  0  0  0  0  0  0  0  0  0  0  0
   21.9280   -9.5830   -5.1010 H   0  0  0  0  0  0  0  0  0  0  0  0
  1  2  2  3
  2  3  1  0
  3  4  1  0
  2  5  1  0
  5  6  1  0
  6  7  1  0
  7  8  1  0
  8  9  1  0
  8 10  1  0
 10 11  2  0
 10 12  1  0
  1 13  1  0
  3 14  1  0
  4 15  1  0
  5 16  1  0
  6 17  1  0
  6 18  1  0
  7 19  1  0
  7 20  1  0
  8 21  1  6
  9 22  1  0
  9 23  1  0
 12 24  1  0
M  END
>  <meeko>  (5) 
{"is_sidechain": [false], "free_energy": -7.496, "intermolecular_energy": -9.887, "internal_energy": -0.189}

$$$$
NNH_redock_run03
     RDKit          3D

 24 23  0  0  0  0  0  0  0  0999 V2000
   25.8270  -16.6390   -5.1400 N   0  0  0  0  0  0  0  0  0  0  0  0
   25.1040  -15.5130   -4.9650 C   0  0  0  0  0  0  0  0  0  0  0  0
   23.7620  -15.6810   -4.5200 N   0  0  0  0  0  0  0  0  0  0  0  0
   23.3030  -16.8580   -4.3060 O   0  0  0  0  0  0  0  0  0  0  0  0
   25.5780  -14.2570   -5.1870 N   0  0  0  0  0  0  0  0  0  0  0  0
   24.8820  -12.9590   -5.0280 C   0  0  0  0  0  0  0  0  0  0  0  0
   25.7260  -11.8340   -4.5280 C   0  0  0  0  0  0  0  0  0  0  0  0
   25.3100  -10.7460   -3.5620 C   0  0  2  0  0  0  0  0  0  0  0  0
   25.7920   -9.4920   -4.1160 N   0  0  0  0  0  0  0  0  0  0  0  0
   25.8770  -11.0180   -2.1580 C   0  0  0  0  0  0  0  0  0  0  0  0
   27.0020  -10.7580   -1.7830 O   0  0  0  0  0  0  0  0  0  0  0  0
   24.9610  -11.6000   -1.3510 O   0  0  0  0  0  0  0  0  0  0  0  0
   25.4020  -17.5590   -4.9530 H   0  0  0  0  0  0  0  0  0  0  0  0
   23.1620  -14.8570   -4.3700 H   0  0  0  0  0  0  0  0  0  0  0  0
   22.4230  -16.9550   -4.7490 H   0  0  0  0  0  0  0  0  0  0  0  0
   26.5540  -14.2000   -5.5090 H   0  0  0  0  0  0  0  0  0  0  0  0
   24.4774  -12.6691   -6.0089 H   0  0  0  0  0  0  0  0  0  0  0  0
   24.1108  -13.1220   -4.2607 H   0  0  0  0  0  0  0  0  0  0  0  0
   26.5927  -12.3181   -4.0543 H   0  0  0  0  0  0  0  0  0  0  0  0
   25.7918  -11.2376   -5.4500 H   0  0  0  0  0  0  0  0  0  0  0  0
   24.2172  -10.7092   -3.4421 H   0  0  0  0  0  0  0  0  0  0  0  0
   25.7310   -9.5260   -5.1440 H   0  0  0  0  0  0  0  0  0  0  0  0
   25.2150   -8.7160   -3.7640 H   0  0  0  0  0  0  0  0  0  0  0  0
   25.2540  -12.2150   -0.6320 H   0  0  0  0  0  0  0  0  0  0  0  0
  1  2  2  3
  2  3  1  0
  3  4  1  0
  2  5  1  0
  5  6  1  0
  6  7  1  0
  7  8  1  0
  8  9  1  0
  8 10  1  0
 10 11  2  0
 10 12  1  0
  1 13  1  0
  3 14  1  0
  4 15  1  0
  5 16  1  0
  6 17  1  0
  6 18  1  0
  7 19  1  0
  7 20  1  0
  8 21  1  1
  9 22  1  0
  9 23  1  0
 12 24  1  0
M  END
>  <meeko>  (6) 
{"is_sidechain": [false], "free_energy": -7.432, "intermolecular_energy": -9.847, "internal_energy": -0.143}

$$$$
NNH_redock_run03
     RDKit          3D

 24 23  0  0  0  0  0  0  0  0999 V2000
   25.6280  -16.8490   -5.4760 N   0  0  0  0  0  0  0  0  0  0  0  0
   25.0780  -15.6860   -5.0660 C   0  0  0  0  0  0  0  0  0  0  0  0
   23.7780  -15.7640   -4.4920 N   0  0  0  0  0  0  0  0  0  0  0  0
   23.1940  -16.9010   -4.3860 O   0  0  0  0  0  0  0  0  0  0  0  0
   25.6860  -14.4730   -5.1710 N   0  0  0  0  0  0  0  0  0  0  0  0
   25.1830  -13.1420   -4.7570 C   0  0  0  0  0  0  0  0  0  0  0  0
   25.9530  -11.9740   -5.2770 C   0  0  0  0  0  0  0  0  0  0  0  0
   25.4540  -10.5540   -5.4340 C   0  0  2  0  0  0  0  0  0  0  0  0
   25.5370   -9.9370   -4.1210 N   0  0  0  0  0  0  0  0  0  0  0  0
   24.0220  -10.5390   -5.9960 C   0  0  0  0  0  0  0  0  0  0  0  0
   23.0180  -10.2600   -5.3740 O   0  0  0  0  0  0  0  0  0  0  0  0
   23.9930  -10.8800   -7.3040 O   0  0  0  0  0  0  0  0  0  0  0  0
   25.1090  -17.7310   -5.3650 H   0  0  0  0  0  0  0  0  0  0  0  0
   23.3070  -14.9100   -4.1620 H   0  0  0  0  0  0  0  0  0  0  0  0
   23.7410  -17.5010   -3.8200 H   0  0  0  0  0  0  0  0  0  0  0  0
   26.6230  -14.4800   -5.5960 H   0  0  0  0  0  0  0  0  0  0  0  0
   24.1451  -13.0475   -5.1089 H   0  0  0  0  0  0  0  0  0  0  0  0
   25.2849  -13.1077   -3.6623 H   0  0  0  0  0  0  0  0  0  0  0  0
   26.8297  -11.8955   -4.6173 H   0  0  0  0  0  0  0  0  0  0  0  0
   26.0141  -12.2593   -6.3376 H   0  0  0  0  0  0  0  0  0  0  0  0
   26.0640   -9.9888   -6.1540 H   0  0  0  0  0  0  0  0  0  0  0  0
   25.6630  -10.6680   -3.4060 H   0  0  0  0  0  0  0  0  0  0  0  0
   26.3370   -9.2900   -4.0950 H   0  0  0  0  0  0  0  0  0  0  0  0
   23.7760  -11.8090   -7.5680 H   0  0  0  0  0  0  0  0  0  0  0  0
  1  2  2  3
  2  3  1  0
  3  4  1  0
  2  5  1  0
  5  6  1  0
  6  7  1  0
  7  8  1  0
  8  9  1  0
  8 10  1  0
 10 11  2  0
 10 12  1  0
  1 13  1  0
  3 14  1  0
  4 15  1  0
  5 16  1  0
  6 17  1  0
  6 18  1  0
  7 19  1  0
  7 20  1  0
  8 21  1  6
  9 22  1  0
  9 23  1  0
 12 24  1  0
M  END
>  <meeko>  (7) 
{"is_sidechain": [false], "free_energy": -7.357, "intermolecular_energy": -9.704, "internal_energy": -0.188}

$$$$
NNH_redock_run03
     RDKit          3D

 24 23  0  0  0  0  0  0  0  0999 V2000
   23.2670   -6.8700   -4.1380 N   0  0  0  0  0  0  0  0  0  0  0  0
   23.7820   -8.0490   -4.5460 C   0  0  0  0  0  0  0  0  0  0  0  0
   22.8800   -9.1480   -4.6130 N   0  0  0  0  0  0  0  0  0  0  0  0
   21.6490   -8.9840   -4.2960 O   0  0  0  0  0  0  0  0  0  0  0  0
   25.0860   -8.2390   -4.8870 N   0  0  0  0  0  0  0  0  0  0  0  0
   25.7570   -9.4770   -5.3460 C   0  0  0  0  0  0  0  0  0  0  0  0
   26.2680  -10.3700   -4.2650 C   0  0  0  0  0  0  0  0  0  0  0  0
   25.5240  -11.5050   -3.5950 C   0  0  2  0  0  0  0  0  0  0  0  0
   24.5760  -12.0130   -4.5720 N   0  0  0  0  0  0  0  0  0  0  0  0
   24.8330  -11.0200   -2.3090 C   0  0  0  0  0  0  0  0  0  0  0  0
   24.0410  -10.1040   -2.2310 O   0  0  0  0  0  0  0  0  0  0  0  0
   25.2120  -11.7450   -1.2330 O   0  0  0  0  0  0  0  0  0  0  0  0
   22.2690   -6.8010   -3.8960 H   0  0  0  0  0  0  0  0  0  0  0  0
   23.2160  -10.0740   -4.9160 H   0  0  0  0  0  0  0  0  0  0  0  0
   21.4060   -8.0300   -4.3990 H   0  0  0  0  0  0  0  0  0  0  0  0
   25.6890   -7.4080   -4.8160 H   0  0  0  0  0  0  0  0  0  0  0  0
   25.0357  -10.0506   -5.9466 H   0  0  0  0  0  0  0  0  0  0  0  0
   26.6425   -9.1489   -5.9102 H   0  0  0  0  0  0  0  0  0  0  0  0
   27.1738  -10.8328   -4.6839 H   0  0  0  0  0  0  0  0  0  0  0  0
   26.2813   -9.6510   -3.4326 H   0  0  0  0  0  0  0  0  0  0  0  0
   26.2081  -12.3075   -3.2820 H   0  0  0  0  0  0  0  0  0  0  0  0
   24.6140  -13.0430   -4.5840 H   0  0  0  0  0  0  0  0  0  0  0  0
   23.6250  -11.7090   -4.3190 H   0  0  0  0  0  0  0  0  0  0  0  0
   25.8170  -11.3480   -0.5570 H   0  0  0  0  0  0  0  0  0  0  0  0
  1  2  2  3
  2  3  1  0
  3  4  1  0
  2  5  1  0
  5  6  1  0
  6  7  1  0
  7  8  1  0
  8  9  1  0
  8 10  1  0
 10 11  2  0
 10 12  1  0
  1 13  1  0
  3 14  1  0
  4 15  1  0
  5 16  1  0
  6 17  1  0
  6 18  1  0
  7 19  1  0
  7 20  1  0
  8 21  1  1
  9 22  1  0
  9 23  1  0
 12 24  1  0
M  END
>  <meeko>  (8) 
{"is_sidechain": [false], "free_energy": -6.878, "intermolecular_energy": -8.551, "internal_energy": -0.707}

$$$$
NNH_redock_run03
     RDKit          3D

 24 23  0  0  0  0  0  0  0  0999 V2000
   21.5270   -8.8330   -3.8520 N   0  0  0  0  0  0  0  0  0  0  0  0
   22.7390   -8.9980   -4.4250 C   0  0  0  0  0  0  0  0  0  0  0  0
   23.6220   -7.8830   -4.3780 N   0  0  0  0  0  0  0  0  0  0  0  0
   23.2480   -6.7960   -3.8110 O   0  0  0  0  0  0  0  0  0  0  0  0
   23.1500  -10.1460   -5.0290 N   0  0  0  0  0  0  0  0  0  0  0  0
   24.4460  -10.4400   -5.6830 C   0  0  0  0  0  0  0  0  0  0  0  0
   25.5610  -10.8100   -4.7630 C   0  0  0  0  0  0  0  0  0  0  0  0
   25.5210  -11.8410   -3.6560 C   0  0  2  0  0  0  0  0  0  0  0  0
   24.6580  -12.9150   -4.1190 N   0  0  0  0  0  0  0  0  0  0  0  0
   25.0200  -11.2140   -2.3450 C   0  0  0  0  0  0  0  0  0  0  0  0
   24.4640  -10.1400   -2.2380 O   0  0  0  0  0  0  0  0  0  0  0  0
   25.2690  -12.0090   -1.2800 O   0  0  0  0  0  0  0  0  0  0  0  0
   21.2840   -7.9340   -3.4120 H   0  0  0  0  0  0  0  0  0  0  0  0
   24.5600   -7.9490   -4.7990 H   0  0  0  0  0  0  0  0  0  0  0  0
   23.9320   -6.5160   -3.1510 H   0  0  0  0  0  0  0  0  0  0  0  0
   22.4660  -10.9160   -5.0330 H   0  0  0  0  0  0  0  0  0  0  0  0
   24.2913  -11.2759   -6.3811 H   0  0  0  0  0  0  0  0  0  0  0  0
   24.7561   -9.5049   -6.1722 H   0  0  0  0  0  0  0  0  0  0  0  0
   26.3785  -11.1343   -5.4237 H   0  0  0  0  0  0  0  0  0  0  0  0
   25.5993   -9.8954   -4.1530 H   0  0  0  0  0  0  0  0  0  0  0  0
   26.5241  -12.2344   -3.4345 H   0  0  0  0  0  0  0  0  0  0  0  0
   24.6540  -12.9320   -5.1480 H   0  0  0  0  0  0  0  0  0  0  0  0
   25.0080  -13.8150   -3.7620 H   0  0  0  0  0  0  0  0  0  0  0  0
   25.7820  -11.6580   -0.5090 H   0  0  0  0  0  0  0  0  0  0  0  0
  1  2  2  3
  2  3  1  0
  3  4  1  0
  2  5  1  0
  5  6  1  0
  6  7  1  0
  7  8  1  0
  8  9  1  0
  8 10  1  0
 10 11  2  0
 10 12  1  0
  1 13  1  0
  3 14  1  0
  4 15  1  0
  5 16  1  0
  6 17  1  0
  6 18  1  0
  7 19  1  0
  7 20  1  0
  8 21  1  1
  9 22  1  0
  9 23  1  0
 12 24  1  0
M  END
>  <meeko>  (9) 
{"is_sidechain": [false], "free_energy": -6.836, "intermolecular_energy": -8.669, "internal_energy": -0.534}

$$$$
NNH_redock_run03
     RDKit          3D

 24 23  0  0  0  0  0  0  0  0999 V2000
   27.2340  -10.2100   -1.8720 N   0  0  0  0  0  0  0  0  0  0  0  0
   26.0440  -10.4430   -2.4650 C   0  0  0  0  0  0  0  0  0  0  0  0
   25.1900  -11.3880   -1.8290 N   0  0  0  0  0  0  0  0  0  0  0  0
   25.5690  -11.9640   -0.7480 O   0  0  0  0  0  0  0  0  0  0  0  0
   25.6280   -9.8390   -3.6110 N   0  0  0  0  0  0  0  0  0  0  0  0
   24.3530  -10.0140   -4.3450 C   0  0  0  0  0  0  0  0  0  0  0  0
   24.3240  -11.1410   -5.3230 C   0  0  0  0  0  0  0  0  0  0  0  0
   25.5110  -11.9170   -5.8510 C   0  0  2  0  0  0  0  0  0  0  0  0
   25.3860  -11.9340   -7.2980 N   0  0  0  0  0  0  0  0  0  0  0  0
   25.5450  -13.3340   -5.2520 C   0  0  0  0  0  0  0  0  0  0  0  0
   26.0110  -14.3190   -5.7860 O   0  0  0  0  0  0  0  0  0  0  0  0
   24.9810  -13.3730   -4.0240 O   0  0  0  0  0  0  0  0  0  0  0  0
   27.4830  -10.7050   -1.0040 H   0  0  0  0  0  0  0  0  0  0  0  0
   24.2700  -11.6080   -2.2350 H   0  0  0  0  0  0  0  0  0  0  0  0
   26.5560  -11.9280   -0.6830 H   0  0  0  0  0  0  0  0  0  0  0  0
   26.2890   -9.1670   -4.0250 H   0  0  0  0  0  0  0  0  0  0  0  0
   23.5572  -10.1865   -3.6055 H   0  0  0  0  0  0  0  0  0  0  0  0
   24.2171   -9.0969   -4.9370 H   0  0  0  0  0  0  0  0  0  0  0  0
   23.6713  -11.8982   -4.8641 H   0  0  0  0  0  0  0  0  0  0  0  0
   24.0596  -10.5806   -6.2319 H   0  0  0  0  0  0  0  0  0  0  0  0
   26.4622  -11.4464   -5.5617 H   0  0  0  0  0  0  0  0  0  0  0  0
   24.5780  -12.5130   -7.5660 H   0  0  0  0  0  0  0  0  0  0  0  0
   25.2480  -10.9730   -7.6420 H   0  0  0  0  0  0  0  0  0  0  0  0
   24.6270  -14.2270   -3.6690 H   0  0  0  0  0  0  0  0  0  0  0  0
  1  2  2  3
  2  3  1  0
  3  4  1  0
  2  5  1  0
  5  6  1  0
  6  7  1  0
  7  8  1  0
  8  9  1  0
  8 10  1  0
 10 11  2  0
 10 12  1  0
  1 13  1  0
  3 14  1  0
  4 15  1  0
  5 16  1  0
  6 17  1  0
  6 18  1  0
  7 19  1  0
  7 20  1  0
  8 21  1  6
  9 22  1  0
  9 23  1  0
 12 24  1  0
M  END
>  <meeko>  (10) 
{"is_sidechain": [false], "free_energy": -6.655, "intermolecular_energy": -8.414, "internal_energy": -0.549}

$$$$
NNH_redock_run03
     RDKit          3D

 24 23  0  0  0  0  0  0  0  0999 V2000
   25.6740   -7.0330   -5.2650 N   0  0  0  0  0  0  0  0  0  0  0  0
   24.8690   -8.0760   -4.9690 C   0  0  0  0  0  0  0  0  0  0  0  0
   23.6630   -7.7720   -4.2760 N   0  0  0  0  0  0  0  0  0  0  0  0
   23.3910   -6.5570   -3.9690 O   0  0  0  0  0  0  0  0  0  0  0  0
   25.1420   -9.3690   -5.2890 N   0  0  0  0  0  0  0  0  0  0  0  0
   24.3390  -10.5840   -5.0190 C   0  0  0  0  0  0  0  0  0  0  0  0
   24.9020  -11.5120   -3.9950 C   0  0  0  0  0  0  0  0  0  0  0  0
   25.2570  -11.1780   -2.5620 C   0  0  2  0  0  0  0  0  0  0  0  0
   24.2720  -10.2120   -2.1050 N   0  0  0  0  0  0  0  0  0  0  0  0
   26.6930  -10.6350   -2.4690 C   0  0  0  0  0  0  0  0  0  0  0  0
   27.3190  -10.1230   -3.3740 O   0  0  0  0  0  0  0  0  0  0  0  0
   27.2090  -10.7930   -1.2300 O   0  0  0  0  0  0  0  0  0  0  0  0
   25.4010   -6.0780   -4.9900 H   0  0  0  0  0  0  0  0  0  0  0  0
   23.0090   -8.5270   -4.0220 H   0  0  0  0  0  0  0  0  0  0  0  0
   22.4230   -6.4730   -3.7810 H   0  0  0  0  0  0  0  0  0  0  0  0
   26.0300   -9.5260   -5.7870 H   0  0  0  0  0  0  0  0  0  0  0  0
   23.3444  -10.2634   -4.6754 H   0  0  0  0  0  0  0  0  0  0  0  0
   24.3214  -11.1499   -5.9621 H   0  0  0  0  0  0  0  0  0  0  0  0
   24.1718  -12.3315   -3.9227 H   0  0  0  0  0  0  0  0  0  0  0  0
   25.9154  -11.6346   -4.4048 H   0  0  0  0  0  0  0  0  0  0  0  0
   25.2330  -12.0716   -1.9209 H   0  0  0  0  0  0  0  0  0  0  0  0
   23.7250   -9.8740   -2.9100 H   0  0  0  0  0  0  0  0  0  0  0  0
   23.6420  -10.6600   -1.4250 H   0  0  0  0  0  0  0  0  0  0  0  0
   27.9540  -11.4290   -1.0810 H   0  0  0  0  0  0  0  0  0  0  0  0
  1  2  2  3
  2  3  1  0
  3  4  1  0
  2  5  1  0
  5  6  1  0
  6  7  1  0
  7  8  1  0
  8  9  1  0
  8 10  1  0
 10 11  2  0
 10 12  1  0
  1 13  1  0
  3 14  1  0
  4 15  1  0
  5 16  1  0
  6 17  1  0
  6 18  1  0
  7 19  1  0
  7 20  1  0
  8 21  1  1
  9 22  1  0
  9 23  1  0
 12 24  1  0
M  END
>  <meeko>  (11) 
{"is_sidechain": [false], "free_energy": -6.575, "intermolecular_energy": -8.042, "internal_energy": -0.816}

$$$$
NNH_redock_run03
     RDKit          3D

 24 23  0  0  0  0  0  0  0  0999 V2000
   28.6980   -9.1420   -3.9260 N   0  0  0  0  0  0  0  0  0  0  0  0
   27.6900  -10.0160   -3.7180 C   0  0  0  0  0  0  0  0  0  0  0  0
   27.2920  -10.2190   -2.3670 N   0  0  0  0  0  0  0  0  0  0  0  0
   27.8850   -9.5830   -1.4240 O   0  0  0  0  0  0  0  0  0  0  0  0
   27.0510  -10.6970   -4.7080 N   0  0  0  0  0  0  0  0  0  0  0  0
   25.9400  -11.6710   -4.5990 C   0  0  0  0  0  0  0  0  0  0  0  0
   24.5680  -11.0850   -4.6100 C   0  0  0  0  0  0  0  0  0  0  0  0
   24.1480   -9.7440   -4.0480 C   0  0  2  0  0  0  0  0  0  0  0  0
   24.3490   -9.8140   -2.6110 N   0  0  0  0  0  0  0  0  0  0  0  0
   22.6880   -9.4320   -4.4180 C   0  0  0  0  0  0  0  0  0  0  0  0
   21.9640   -8.6400   -3.8500 O   0  0  0  0  0  0  0  0  0  0  0  0
   22.2740  -10.1560   -5.4820 O   0  0  0  0  0  0  0  0  0  0  0  0
   29.1360   -8.6620   -3.1270 H   0  0  0  0  0  0  0  0  0  0  0  0
   26.5290  -10.8750   -2.1460 H   0  0  0  0  0  0  0  0  0  0  0  0
   28.0280   -8.6430   -1.7000 H   0  0  0  0  0  0  0  0  0  0  0  0
   27.3850  -10.5100   -5.6640 H   0  0  0  0  0  0  0  0  0  0  0  0
   26.0171  -12.3690   -5.4457 H   0  0  0  0  0  0  0  0  0  0  0  0
   26.0551  -12.1513   -3.6161 H   0  0  0  0  0  0  0  0  0  0  0  0
   24.2830  -11.0496   -5.6718 H   0  0  0  0  0  0  0  0  0  0  0  0
   24.0869  -11.7450   -3.8732 H   0  0  0  0  0  0  0  0  0  0  0  0
   24.7462   -8.9236   -4.4712 H   0  0  0  0  0  0  0  0  0  0  0  0
   24.3720   -8.8610   -2.2210 H   0  0  0  0  0  0  0  0  0  0  0  0
   23.5760  -10.3420   -2.1810 H   0  0  0  0  0  0  0  0  0  0  0  0
   21.6590   -9.7540   -6.1460 H   0  0  0  0  0  0  0  0  0  0  0  0
  1  2  2  3
  2  3  1  0
  3  4  1  0
  2  5  1  0
  5  6  1  0
  6  7  1  0
  7  8  1  0
  8  9  1  0
  8 10  1  0
 10 11  2  0
 10 12  1  0
  1 13  1  0
  3 14  1  0
  4 15  1  0
  5 16  1  0
  6 17  1  0
  6 18  1  0
  7 19  1  0
  7 20  1  0
  8 21  1  6
  9 22  1  0
  9 23  1  0
 12 24  1  0
M  END
>  <meeko>  (12) 
{"is_sidechain": [false], "free_energy": -6.435, "intermolecular_energy": -8.206, "internal_energy": -0.466}

$$$$
NNH_redock_run03
     RDKit          3D

 24 23  0  0  0  0  0  0  0  0999 V2000
   21.9460   -8.7870   -3.9280 N   0  0  0  0  0  0  0  0  0  0  0  0
   23.2900   -8.8070   -4.0580 C   0  0  0  0  0  0  0  0  0  0  0  0
   23.9130   -7.5790   -4.4180 N   0  0  0  0  0  0  0  0  0  0  0  0
   23.1990   -6.5290   -4.5970 O   0  0  0  0  0  0  0  0  0  0  0  0
   24.0600   -9.9120   -3.8700 N   0  0  0  0  0  0  0  0  0  0  0  0
   25.5310  -10.0510   -3.9830 C   0  0  0  0  0  0  0  0  0  0  0  0
   26.0500  -10.2860   -5.3610 C   0  0  0  0  0  0  0  0  0  0  0  0
   25.5810  -11.3380   -6.3430 C   0  0  2  0  0  0  0  0  0  0  0  0
   24.2410  -10.9540   -6.7530 N   0  0  0  0  0  0  0  0  0  0  0  0
   25.6170  -12.7360   -5.7030 C   0  0  0  0  0  0  0  0  0  0  0  0
   26.5320  -13.5300   -5.7800 O   0  0  0  0  0  0  0  0  0  0  0  0
   24.4830  -13.0030   -5.0170 O   0  0  0  0  0  0  0  0  0  0  0  0
   21.4270   -7.9110   -4.0860 H   0  0  0  0  0  0  0  0  0  0  0  0
   24.9350   -7.5330   -4.5330 H   0  0  0  0  0  0  0  0  0  0  0  0
   23.4070   -6.1370   -5.4820 H   0  0  0  0  0  0  0  0  0  0  0  0
   23.5520  -10.7700   -3.6140 H   0  0  0  0  0  0  0  0  0  0  0  0
   25.9890   -9.1265   -3.6015 H   0  0  0  0  0  0  0  0  0  0  0  0
   25.7947  -10.9484   -3.4040 H   0  0  0  0  0  0  0  0  0  0  0  0
   25.9109   -9.3281   -5.8836 H   0  0  0  0  0  0  0  0  0  0  0  0
   27.0357  -10.7049   -5.1100 H   0  0  0  0  0  0  0  0  0  0  0  0
   26.2415  -11.3944   -7.2208 H   0  0  0  0  0  0  0  0  0  0  0  0
   23.5490  -11.5070   -6.2270 H   0  0  0  0  0  0  0  0  0  0  0  0
   24.0960   -9.9530   -6.5620 H   0  0  0  0  0  0  0  0  0  0  0  0
   24.1610  -12.3700   -4.3260 H   0  0  0  0  0  0  0  0  0  0  0  0
  1  2  2  3
  2  3  1  0
  3  4  1  0
  2  5  1  0
  5  6  1  0
  6  7  1  0
  7  8  1  0
  8  9  1  0
  8 10  1  0
 10 11  2  0
 10 12  1  0
  1 13  1  0
  3 14  1  0
  4 15  1  0
  5 16  1  0
  6 17  1  0
  6 18  1  0
  7 19  1  0
  7 20  1  0
  8 21  1  6
  9 22  1  0
  9 23  1  0
 12 24  1  0
M  END
>  <meeko>  (13) 
{"is_sidechain": [false], "free_energy": -6.418, "intermolecular_energy": -8.115, "internal_energy": -0.536}

$$$$
NNH_redock_run03
     RDKit          3D

 24 23  0  0  0  0  0  0  0  0999 V2000
   22.0950   -8.8190   -3.9820 N   0  0  0  0  0  0  0  0  0  0  0  0
   23.4270   -8.8510   -4.1990 C   0  0  0  0  0  0  0  0  0  0  0  0
   24.0490   -7.6110   -4.5210 N   0  0  0  0  0  0  0  0  0  0  0  0
   23.3450   -6.5420   -4.5900 O   0  0  0  0  0  0  0  0  0  0  0  0
   24.1870   -9.9770   -4.1280 N   0  0  0  0  0  0  0  0  0  0  0  0
   25.6450  -10.1300   -4.3430 C   0  0  0  0  0  0  0  0  0  0  0  0
   26.0400  -10.8200   -5.6050 C   0  0  0  0  0  0  0  0  0  0  0  0
   25.9690  -10.2590   -7.0090 C   0  0  2  0  0  0  0  0  0  0  0  0
   25.8340   -8.8180   -6.8740 N   0  0  0  0  0  0  0  0  0  0  0  0
   24.7980  -10.8830   -7.7870 C   0  0  0  0  0  0  0  0  0  0  0  0
   24.8880  -11.5250   -8.8120 O   0  0  0  0  0  0  0  0  0  0  0  0
   23.6110  -10.6350   -7.1900 O   0  0  0  0  0  0  0  0  0  0  0  0
   21.5830   -7.9280   -4.0530 H   0  0  0  0  0  0  0  0  0  0  0  0
   25.0630   -7.5740   -4.6980 H   0  0  0  0  0  0  0  0  0  0  0  0
   23.9020   -5.8030   -4.9410 H   0  0  0  0  0  0  0  0  0  0  0  0
   23.6800  -10.8420   -3.8940 H   0  0  0  0  0  0  0  0  0  0  0  0
   26.0934   -9.1256   -4.3515 H   0  0  0  0  0  0  0  0  0  0  0  0
   26.0051  -10.7700   -3.5240 H   0  0  0  0  0  0  0  0  0  0  0  0
   27.0962  -11.0917   -5.4612 H   0  0  0  0  0  0  0  0  0  0  0  0
   25.2253  -11.5565   -5.6669 H   0  0  0  0  0  0  0  0  0  0  0  0
   26.8740  -10.5000   -7.5860 H   0  0  0  0  0  0  0  0  0  0  0  0
   26.4140   -8.3510   -7.5860 H   0  0  0  0  0  0  0  0  0  0  0  0
   24.8490   -8.5510   -7.0050 H   0  0  0  0  0  0  0  0  0  0  0  0
   23.5530   -9.9700   -6.4580 H   0  0  0  0  0  0  0  0  0  0  0  0
  1  2  2  3
  2  3  1  0
  3  4  1  0
  2  5  1  0
  5  6  1  0
  6  7  1  0
  7  8  1  0
  8  9  1  0
  8 10  1  0
 10 11  2  0
 10 12  1  0
  1 13  1  0
  3 14  1  0
  4 15  1  0
  5 16  1  0
  6 17  1  0
  6 18  1  0
  7 19  1  0
  7 20  1  0
  8 21  1  6
  9 22  1  0
  9 23  1  0
 12 24  1  0
M  END
>  <meeko>  (14) 
{"is_sidechain": [false], "free_energy": -6.368, "intermolecular_energy": -7.703, "internal_energy": -0.881}

$$$$
NNH_redock_run03
     RDKit          3D

 24 23  0  0  0  0  0  0  0  0999 V2000
   25.9910  -13.8690   -5.9890 N   0  0  0  0  0  0  0  0  0  0  0  0
   25.3920  -13.1990   -4.9820 C   0  0  0  0  0  0  0  0  0  0  0  0
   24.2950  -13.8500   -4.3490 N   0  0  0  0  0  0  0  0  0  0  0  0
   23.9290  -15.0130   -4.7430 O   0  0  0  0  0  0  0  0  0  0  0  0
   25.7700  -11.9650   -4.5520 N   0  0  0  0  0  0  0  0  0  0  0  0
   25.1920  -11.1420   -3.4640 C   0  0  0  0  0  0  0  0  0  0  0  0
   24.0740  -10.2390   -3.8660 C   0  0  0  0  0  0  0  0  0  0  0  0
   24.1690   -9.0080   -4.7420 C   0  0  2  0  0  0  0  0  0  0  0  0
   25.5490   -8.5570   -4.6760 N   0  0  0  0  0  0  0  0  0  0  0  0
   23.1800   -7.9280   -4.2720 C   0  0  0  0  0  0  0  0  0  0  0  0
   23.3000   -6.7320   -4.4430 O   0  0  0  0  0  0  0  0  0  0  0  0
   22.1220   -8.4640   -3.6240 O   0  0  0  0  0  0  0  0  0  0  0  0
   25.6500  -14.8020   -6.2610 H   0  0  0  0  0  0  0  0  0  0  0  0
   23.7980  -13.3870   -3.5750 H   0  0  0  0  0  0  0  0  0  0  0  0
   24.4520  -15.7040   -4.2640 H   0  0  0  0  0  0  0  0  0  0  0  0
   26.5670  -11.5460   -5.0500 H   0  0  0  0  0  0  0  0  0  0  0  0
   24.8146  -11.8236   -2.6875 H   0  0  0  0  0  0  0  0  0  0  0  0
   26.0032  -10.4835   -3.1200 H   0  0  0  0  0  0  0  0  0  0  0  0
   23.3495  -10.8930   -4.3733 H   0  0  0  0  0  0  0  0  0  0  0  0
   23.8814   -9.7534   -2.8980 H   0  0  0  0  0  0  0  0  0  0  0  0
   23.8958   -9.2314   -5.7839 H   0  0  0  0  0  0  0  0  0  0  0  0
   25.7790   -8.2950   -3.7060 H   0  0  0  0  0  0  0  0  0  0  0  0
   26.1730   -9.3170   -4.9820 H   0  0  0  0  0  0  0  0  0  0  0  0
   22.2150   -9.3350   -3.1600 H   0  0  0  0  0  0  0  0  0  0  0  0
  1  2  2  3
  2  3  1  0
  3  4  1  0
  2  5  1  0
  5  6  1  0
  6  7  1  0
  7  8  1  0
  8  9  1  0
  8 10  1  0
 10 11  2  0
 10 12  1  0
  1 13  1  0
  3 14  1  0
  4 15  1  0
  5 16  1  0
  6 17  1  0
  6 18  1  0
  7 19  1  0
  7 20  1  0
  8 21  1  6
  9 22  1  0
  9 23  1  0
 12 24  1  0
M  END
>  <meeko>  (15) 
{"is_sidechain": [false], "free_energy": -6.311, "intermolecular_energy": -8.197, "internal_energy": -0.311}

$$$$
NNH_redock_run03
     RDKit          3D

 24 23  0  0  0  0  0  0  0  0999 V2000
   22.5990   -9.1950   -3.6330 N   0  0  0  0  0  0  0  0  0  0  0  0
   23.9010   -9.3910   -3.9340 C   0  0  0  0  0  0  0  0  0  0  0  0
   24.6810  -10.0810   -2.9630 N   0  0  0  0  0  0  0  0  0  0  0  0
   24.1380  -10.4800   -1.8730 O   0  0  0  0  0  0  0  0  0  0  0  0
   24.4910   -8.9740   -5.0860 N   0  0  0  0  0  0  0  0  0  0  0  0
   25.8980   -9.1340   -5.5210 C   0  0  0  0  0  0  0  0  0  0  0  0
   26.0910   -9.8050   -6.8400 C   0  0  0  0  0  0  0  0  0  0  0  0
   25.5490  -11.1540   -7.2610 C   0  0  2  0  0  0  0  0  0  0  0  0
   24.1420  -10.9600   -7.5650 N   0  0  0  0  0  0  0  0  0  0  0  0
   25.7680  -12.1990   -6.1540 C   0  0  0  0  0  0  0  0  0  0  0  0
   26.7780  -12.8480   -5.9790 O   0  0  0  0  0  0  0  0  0  0  0  0
   24.6780  -12.3280   -5.3650 O   0  0  0  0  0  0  0  0  0  0  0  0
   22.2200   -9.5390   -2.7390 H   0  0  0  0  0  0  0  0  0  0  0  0
   25.6810  -10.2590   -3.1370 H   0  0  0  0  0  0  0  0  0  0  0  0
   24.4200  -11.4110   -1.6850 H   0  0  0  0  0  0  0  0  0  0  0  0
   23.8760   -8.4800   -5.7470 H   0  0  0  0  0  0  0  0  0  0  0  0
   26.3500   -8.1330   -5.5808 H   0  0  0  0  0  0  0  0  0  0  0  0
   26.3712   -9.7908   -4.7763 H   0  0  0  0  0  0  0  0  0  0  0  0
   25.6931   -9.0955   -7.5804 H   0  0  0  0  0  0  0  0  0  0  0  0
   27.1576  -10.0604   -6.7553 H   0  0  0  0  0  0  0  0  0  0  0  0
   26.0745  -11.5417   -8.1462 H   0  0  0  0  0  0  0  0  0  0  0  0
   23.9710  -11.1840   -8.5560 H   0  0  0  0  0  0  0  0  0  0  0  0
   23.5730  -11.5790   -6.9700 H   0  0  0  0  0  0  0  0  0  0  0  0
   24.1370  -13.1570   -5.3990 H   0  0  0  0  0  0  0  0  0  0  0  0
  1  2  2  3
  2  3  1  0
  3  4  1  0
  2  5  1  0
  5  6  1  0
  6  7  1  0
  7  8  1  0
  8  9  1  0
  8 10  1  0
 10 11  2  0
 10 12  1  0
  1 13  1  0
  3 14  1  0
  4 15  1  0
  5 16  1  0
  6 17  1  0
  6 18  1  0
  7 19  1  0
  7 20  1  0
  8 21  1  6
  9 22  1  0
  9 23  1  0
 12 24  1  0
M  END
>  <meeko>  (16) 
{"is_sidechain": [false], "free_energy": -6.303, "intermolecular_energy": -7.744, "internal_energy": -0.754}

$$$$
NNH_redock_run03
     RDKit          3D

 24 23  0  0  0  0  0  0  0  0999 V2000
   24.0370   -6.4660   -4.6640 N   0  0  0  0  0  0  0  0  0  0  0  0
   24.9510   -7.4040   -4.9890 C   0  0  0  0  0  0  0  0  0  0  0  0
   26.3060   -6.9750   -5.0600 N   0  0  0  0  0  0  0  0  0  0  0  0
   26.6020   -5.7510   -4.8180 O   0  0  0  0  0  0  0  0  0  0  0  0
   24.6520   -8.7070   -5.2470 N   0  0  0  0  0  0  0  0  0  0  0  0
   25.5650   -9.8160   -5.6080 C   0  0  0  0  0  0  0  0  0  0  0  0
   26.1870  -10.5370   -4.4600 C   0  0  0  0  0  0  0  0  0  0  0  0
   25.5540  -11.6230   -3.6170 C   0  0  2  0  0  0  0  0  0  0  0  0
   24.6640  -12.3640   -4.4960 N   0  0  0  0  0  0  0  0  0  0  0  0
   24.8130  -11.0170   -2.4130 C   0  0  0  0  0  0  0  0  0  0  0  0
   24.0880  -10.0450   -2.4420 O   0  0  0  0  0  0  0  0  0  0  0  0
   25.0610  -11.7030   -1.2750 O   0  0  0  0  0  0  0  0  0  0  0  0
   24.3360   -5.4970   -4.4820 H   0  0  0  0  0  0  0  0  0  0  0  0
   27.0480   -7.6470   -5.3040 H   0  0  0  0  0  0  0  0  0  0  0  0
   26.5300   -5.2240   -5.6530 H   0  0  0  0  0  0  0  0  0  0  0  0
   23.6560   -8.9550   -5.1820 H   0  0  0  0  0  0  0  0  0  0  0  0
   24.9927  -10.5476   -6.1973 H   0  0  0  0  0  0  0  0  0  0  0  0
   26.3968   -9.3540   -6.1601 H   0  0  0  0  0  0  0  0  0  0  0  0
   27.0990  -10.9934   -4.8723 H   0  0  0  0  0  0  0  0  0  0  0  0
   26.1947   -9.7215   -3.7218 H   0  0  0  0  0  0  0  0  0  0  0  0
   26.3117  -12.2979   -3.1922 H   0  0  0  0  0  0  0  0  0  0  0  0
   24.8030  -13.3740   -4.3520 H   0  0  0  0  0  0  0  0  0  0  0  0
   23.6880  -12.1180   -4.2820 H   0  0  0  0  0  0  0  0  0  0  0  0
   25.6060  -12.5300   -1.3040 H   0  0  0  0  0  0  0  0  0  0  0  0
  1  2  2  3
  2  3  1  0
  3  4  1  0
  2  5  1  0
  5  6  1  0
  6  7  1  0
  7  8  1  0
  8  9  1  0
  8 10  1  0
 10 11  2  0
 10 12  1  0
  1 13  1  0
  3 14  1  0
  4 15  1  0
  5 16  1  0
  6 17  1  0
  6 18  1  0
  7 19  1  0
  7 20  1  0
  8 21  1  1
  9 22  1  0
  9 23  1  0
 12 24  1  0
M  END
>  <meeko>  (17) 
{"is_sidechain": [false], "free_energy": -6.29, "intermolecular_energy": -8.019, "internal_energy": -0.462}

$$$$
NNH_redock_run03
     RDKit          3D

 24 23  0  0  0  0  0  0  0  0999 V2000
   22.6130   -9.1590   -3.4770 N   0  0  0  0  0  0  0  0  0  0  0  0
   23.7570   -9.5370   -4.0850 C   0  0  0  0  0  0  0  0  0  0  0  0
   24.8040  -10.0000   -3.2390 N   0  0  0  0  0  0  0  0  0  0  0  0
   24.6280  -10.0430   -1.9700 O   0  0  0  0  0  0  0  0  0  0  0  0
   23.9580   -9.4980   -5.4300 N   0  0  0  0  0  0  0  0  0  0  0  0
   25.1610   -9.8860   -6.2020 C   0  0  0  0  0  0  0  0  0  0  0  0
   26.0540   -8.7620   -6.6100 C   0  0  0  0  0  0  0  0  0  0  0  0
   26.8720   -7.8750   -5.6970 C   0  0  2  0  0  0  0  0  0  0  0  0
   27.1750   -8.6620   -4.5140 N   0  0  0  0  0  0  0  0  0  0  0  0
   26.1040   -6.5860   -5.3590 C   0  0  0  0  0  0  0  0  0  0  0  0
   24.9030   -6.4320   -5.4420 O   0  0  0  0  0  0  0  0  0  0  0  0
   26.9340   -5.6020   -4.9430 O   0  0  0  0  0  0  0  0  0  0  0  0
   22.5320   -9.2150   -2.4520 H   0  0  0  0  0  0  0  0  0  0  0  0
   25.7010  -10.3010   -3.6470 H   0  0  0  0  0  0  0  0  0  0  0  0
   23.6860   -9.8220   -1.7600 H   0  0  0  0  0  0  0  0  0  0  0  0
   23.1650   -9.1520   -5.9880 H   0  0  0  0  0  0  0  0  0  0  0  0
   25.7504  -10.5799   -5.5846 H   0  0  0  0  0  0  0  0  0  0  0  0
   24.7889  -10.3301   -7.1370 H   0  0  0  0  0  0  0  0  0  0  0  0
   26.7851   -9.2148   -7.2959 H   0  0  0  0  0  0  0  0  0  0  0  0
   25.2918   -8.0355   -6.9280 H   0  0  0  0  0  0  0  0  0  0  0  0
   27.8051   -7.5497   -6.1803 H   0  0  0  0  0  0  0  0  0  0  0  0
   26.8630   -9.6330   -4.6590 H   0  0  0  0  0  0  0  0  0  0  0  0
   28.1900   -8.6500   -4.3440 H   0  0  0  0  0  0  0  0  0  0  0  0
   27.1120   -5.4810   -3.9760 H   0  0  0  0  0  0  0  0  0  0  0  0
  1  2  2  3
  2  3  1  0
  3  4  1  0
  2  5  1  0
  5  6  1  0
  6  7  1  0
  7  8  1  0
  8  9  1  0
  8 10  1  0
 10 11  2  0
 10 12  1  0
  1 13  1  0
  3 14  1  0
  4 15  1  0
  5 16  1  0
  6 17  1  0
  6 18  1  0
  7 19  1  0
  7 20  1  0
  8 21  1  6
  9 22  1  0
  9 23  1  0
 12 24  1  0
M  END
>  <meeko>  (18) 
{"is_sidechain": [false], "free_energy": -6.055, "intermolecular_energy": -7.275, "internal_energy": -0.895}

$$$$
NNH_redock_run03
     RDKit          3D

 24 23  0  0  0  0  0  0  0  0999 V2000
   21.8860   -8.8290   -3.9270 N   0  0  0  0  0  0  0  0  0  0  0  0
   23.2310   -8.9390   -3.9520 C   0  0  0  0  0  0  0  0  0  0  0  0
   23.9560   -7.7830   -4.3580 N   0  0  0  0  0  0  0  0  0  0  0  0
   23.3270   -6.7120   -4.6730 O   0  0  0  0  0  0  0  0  0  0  0  0
   23.9140  -10.0680   -3.6180 N   0  0  0  0  0  0  0  0  0  0  0  0
   25.3770  -10.3010   -3.6070 C   0  0  0  0  0  0  0  0  0  0  0  0
   25.8760  -11.3000   -4.5960 C   0  0  0  0  0  0  0  0  0  0  0  0
   25.1180  -11.8690   -5.7760 C   0  0  2  0  0  0  0  0  0  0  0  0
   25.8490  -13.0480   -6.2100 N   0  0  0  0  0  0  0  0  0  0  0  0
   24.9840  -10.8210   -6.8940 C   0  0  0  0  0  0  0  0  0  0  0  0
   25.8970  -10.2050   -7.4030 O   0  0  0  0  0  0  0  0  0  0  0  0
   23.6960  -10.6480   -7.2670 O   0  0  0  0  0  0  0  0  0  0  0  0
   21.4370   -7.9410   -4.1930 H   0  0  0  0  0  0  0  0  0  0  0  0
   24.9860   -7.8070   -4.3970 H   0  0  0  0  0  0  0  0  0  0  0  0
   22.9360   -6.8140   -5.5770 H   0  0  0  0  0  0  0  0  0  0  0  0
   23.3350  -10.8700   -3.3350 H   0  0  0  0  0  0  0  0  0  0  0  0
   25.8744   -9.3419   -3.8138 H   0  0  0  0  0  0  0  0  0  0  0  0
   25.6090  -10.7163   -2.6152 H   0  0  0  0  0  0  0  0  0  0  0  0
   26.7767  -10.8426   -5.0314 H   0  0  0  0  0  0  0  0  0  0  0  0
   25.8968  -12.1916   -3.9521 H   0  0  0  0  0  0  0  0  0  0  0  0
   24.0895  -12.1451   -5.5003 H   0  0  0  0  0  0  0  0  0  0  0  0
   26.6540  -12.7590   -6.7850 H   0  0  0  0  0  0  0  0  0  0  0  0
   26.1840  -13.5670   -5.3870 H   0  0  0  0  0  0  0  0  0  0  0  0
   23.1390  -11.4320   -7.5040 H   0  0  0  0  0  0  0  0  0  0  0  0
  1  2  2  3
  2  3  1  0
  3  4  1  0
  2  5  1  0
  5  6  1  0
  6  7  1  0
  7  8  1  0
  8  9  1  0
  8 10  1  0
 10 11  2  0
 10 12  1  0
  1 13  1  0
  3 14  1  0
  4 15  1  0
  5 16  1  0
  6 17  1  0
  6 18  1  0
  7 19  1  0
  7 20  1  0
  8 21  1  1
  9 22  1  0
  9 23  1  0
 12 24  1  0
M  END
>  <meeko>  (19) 
{"is_sidechain": [false], "free_energy": -6.037, "intermolecular_energy": -7.834, "internal_energy": -0.313}

$$$$
NNH_redock_run03
     RDKit          3D

 24 23  0  0  0  0  0  0  0  0999 V2000
   25.1200  -11.3700   -1.6620 N   0  0  0  0  0  0  0  0  0  0  0  0
   24.9390  -11.5640   -2.9860 C   0  0  0  0  0  0  0  0  0  0  0  0
   24.3920  -10.4740   -3.7200 N   0  0  0  0  0  0  0  0  0  0  0  0
   24.1000   -9.3810   -3.1170 O   0  0  0  0  0  0  0  0  0  0  0  0
   25.2450  -12.7180   -3.6390 N   0  0  0  0  0  0  0  0  0  0  0  0
   25.0940  -13.0410   -5.0760 C   0  0  0  0  0  0  0  0  0  0  0  0
   26.2220  -12.6140   -5.9540 C   0  0  0  0  0  0  0  0  0  0  0  0
   26.3570  -11.2960   -6.6860 C   0  0  2  0  0  0  0  0  0  0  0  0
   26.7780  -10.3140   -5.7010 N   0  0  0  0  0  0  0  0  0  0  0  0
   25.0300  -10.9110   -7.3630 C   0  0  0  0  0  0  0  0  0  0  0  0
   24.6340  -11.3190   -8.4350 O   0  0  0  0  0  0  0  0  0  0  0  0
   24.3210  -10.0370   -6.6140 O   0  0  0  0  0  0  0  0  0  0  0  0
   24.8640  -10.4680   -1.2340 H   0  0  0  0  0  0  0  0  0  0  0  0
   24.2310  -10.5640   -4.7330 H   0  0  0  0  0  0  0  0  0  0  0  0
   24.2850   -8.6150   -3.7160 H   0  0  0  0  0  0  0  0  0  0  0  0
   25.6360  -13.4700   -3.0540 H   0  0  0  0  0  0  0  0  0  0  0  0
   24.9873  -14.1319   -5.1684 H   0  0  0  0  0  0  0  0  0  0  0  0
   24.2142  -12.4777   -5.4205 H   0  0  0  0  0  0  0  0  0  0  0  0
   27.1167  -12.6777   -5.3173 H   0  0  0  0  0  0  0  0  0  0  0  0
   26.0379  -13.2757   -6.8132 H   0  0  0  0  0  0  0  0  0  0  0  0
   27.0995  -11.3580   -7.4952 H   0  0  0  0  0  0  0  0  0  0  0  0
   27.0640   -9.4480   -6.1790 H   0  0  0  0  0  0  0  0  0  0  0  0
   25.9950  -10.1110   -5.0630 H   0  0  0  0  0  0  0  0  0  0  0  0
   24.0140   -9.1810   -7.0090 H   0  0  0  0  0  0  0  0  0  0  0  0
  1  2  2  3
  2  3  1  0
  3  4  1  0
  2  5  1  0
  5  6  1  0
  6  7  1  0
  7  8  1  0
  8  9  1  0
  8 10  1  0
 10 11  2  0
 10 12  1  0
  1 13  1  0
  3 14  1  0
  4 15  1  0
  5 16  1  0
  6 17  1  0
  6 18  1  0
  7 19  1  0
  7 20  1  0
  8 21  1  6
  9 22  1  0
  9 23  1  0
 12 24  1  0
M  END
>  <meeko>  (20) 
{"is_sidechain": [false], "free_energy": -5.928, "intermolecular_energy": -7.132, "internal_energy": -0.87}

$$$$
