linoleate_run03
     RDKit          3D

 51 50  0  0  0  0  0  0  0  0999 V2000
   50.0650   33.1580   25.4440 C   0  0  0  0  0  0  0  0  0  0  0  0
   49.1400   32.1770   24.7420 C   0  0  0  0  0  0  0  0  0  0  0  0
   47.8320   31.9230   25.4950 C   0  0  0  0  0  0  0  0  0  0  0  0
   47.7890   32.5860   26.8760 C   0  0  0  0  0  0  0  0  0  0  0  0
   46.5820   33.5230   27.0020 C   0  0  0  0  0  0  0  0  0  0  0  0
   46.0830   34.1600   25.7330 C   0  0  0  0  0  0  0  0  0  0  0  0
   46.5520   35.2690   25.1380 C   0  0  0  0  0  0  0  0  0  0  0  0
   47.6980   36.0770   25.6770 C   0  0  0  0  0  0  0  0  0  0  0  0
   47.2290   37.3800   26.2540 C   0  0  0  0  0  0  0  0  0  0  0  0
   47.5430   37.8050   27.4870 C   0  0  0  0  0  0  0  0  0  0  0  0
   48.4050   37.0290   28.4420 C   0  0  0  0  0  0  0  0  0  0  0  0
   47.6800   36.6610   29.7420 C   0  0  0  0  0  0  0  0  0  0  0  0
   47.7600   35.1690   30.0800 C   0  0  0  0  0  0  0  0  0  0  0  0
   48.2680   34.8940   31.4990 C   0  0  0  0  0  0  0  0  0  0  0  0
   47.8370   35.9560   32.5140 C   0  0  0  0  0  0  0  0  0  0  0  0
   46.4220   35.6790   33.0370 C   0  0  0  0  0  0  0  0  0  0  0  0
   45.4720   36.8530   32.8000 C   0  0  0  0  0  0  0  0  0  0  0  0
   44.1100   36.6480   33.4180 C   0  0  0  0  0  0  0  0  0  0  0  0
   43.2020   35.9770   32.9520 O   0  0  0  0  0  0  0  0  0  0  0  0
   44.0340   37.3000   34.6060 O   0  0  0  0  0  0  0  0  0  0  0  0
   49.9595   33.0462   26.5332 H   0  0  0  0  0  0  0  0  0  0  0  0
   51.1059   32.9527   25.1534 H   0  0  0  0  0  0  0  0  0  0  0  0
   49.7989   34.1850   25.1534 H   0  0  0  0  0  0  0  0  0  0  0  0
   48.8964   32.5792   23.7476 H   0  0  0  0  0  0  0  0  0  0  0  0
   49.6718   31.2158   24.6854 H   0  0  0  0  0  0  0  0  0  0  0  0
   47.0002   32.3169   24.8926 H   0  0  0  0  0  0  0  0  0  0  0  0
   47.7521   30.8372   25.6522 H   0  0  0  0  0  0  0  0  0  0  0  0
   47.7193   31.8049   27.6473 H   0  0  0  0  0  0  0  0  0  0  0  0
   48.7063   33.1788   27.0073 H   0  0  0  0  0  0  0  0  0  0  0  0
   45.7526   32.9417   27.4312 H   0  0  0  0  0  0  0  0  0  0  0  0
   46.9301   34.3589   27.6265 H   0  0  0  0  0  0  0  0  0  0  0  0
   45.2381   33.6605   25.2364 H   0  0  0  0  0  0  0  0  0  0  0  0
   46.0715   35.6033   24.2067 H   0  0  0  0  0  0  0  0  0  0  0  0
   48.2037   35.4989   26.4644 H   0  0  0  0  0  0  0  0  0  0  0  0
   48.3867   36.2950   24.8475 H   0  0  0  0  0  0  0  0  0  0  0  0
   46.5912   38.0237   25.6304 H   0  0  0  0  0  0  0  0  0  0  0  0
   47.1470   38.7766   27.8175 H   0  0  0  0  0  0  0  0  0  0  0  0
   48.7290   36.1016   27.9470 H   0  0  0  0  0  0  0  0  0  0  0  0
   49.2568   37.6708   28.7113 H   0  0  0  0  0  0  0  0  0  0  0  0
   48.1325   37.2305   30.5672 H   0  0  0  0  0  0  0  0  0  0  0  0
   46.6169   36.9065   29.6024 H   0  0  0  0  0  0  0  0  0  0  0  0
   46.7547   34.7340   29.9789 H   0  0  0  0  0  0  0  0  0  0  0  0
   48.4805   34.7159   29.3832 H   0  0  0  0  0  0  0  0  0  0  0  0
   47.8774   33.9193   31.8267 H   0  0  0  0  0  0  0  0  0  0  0  0
   49.3672   34.9087   31.4596 H   0  0  0  0  0  0  0  0  0  0  0  0
   48.5400   35.9505   33.3600 H   0  0  0  0  0  0  0  0  0  0  0  0
   47.8391   36.9365   32.0154 H   0  0  0  0  0  0  0  0  0  0  0  0
   46.0228   34.7923   32.5228 H   0  0  0  0  0  0  0  0  0  0  0  0
   46.4917   35.5184   34.1230 H   0  0  0  0  0  0  0  0  0  0  0  0
   45.9203   37.7590   33.2338 H   0  0  0  0  0  0  0  0  0  0  0  0
   45.3283   36.9438   31.7132 H   0  0  0  0  0  0  0  0  0  0  0  0
  1  2  1  0
  2  3  1  0
  3  4  1  0
  4  5  1  0
  5  6  1  0
  6  7  2  0
  7  8  1  0
  8  9  1  0
  9 10  2  0
 10 11  1  0
 11 12  1  0
 12 13  1  0
 13 14  1  0
 14 15  1  0
 15 16  1  0
 16 17  1  0
 17 18  1  0
 18 19  2  0
 18 20  1  0
  1 21  1  0
  1 22  1  0
  1 23  1  0
  2 24  1  0
  2 25  1  0
  3 26  1  0
  3 27  1  0
  4 28  1  0
  4 29  1  0
  5 30  1  0
  5 31  1  0
  6 32  1  0
  7 33  1  0
  8 34  1  0
  8 35  1  0
  9 36  1  0
 10 37  1  0
 11 38  1  0
 11 39  1  0
 12 40  1  0
 12 41  1  0
 13 42  1  0
 13 43  1  0
 14 44  1  0
 14 45  1  0
 15 46  1  0
 15 47  1  0
 16 48  1  0
 16 49  1  0
 17 50  1  0
 17 51  1  0
M  CHG  1  20  -1
M  END
>  <meeko>  (1) 
{"is_sidechain": [false], "free_energy": -5.702, "intermolecular_energy": -10.369, "internal_energy": -1.884}

$$$$
linoleate_run03
     RDKit          3D

 51 50  0  0  0  0  0  0  0  0999 V2000
   52.9360   32.6410   25.4970 C   0  0  0  0  0  0  0  0  0  0  0  0
   52.2330   31.5340   24.7270 C   0  0  0  0  0  0  0  0  0  0  0  0
   50.7090   31.5700   24.8600 C   0  0  0  0  0  0  0  0  0  0  0  0
   50.1640   32.9550   25.2200 C   0  0  0  0  0  0  0  0  0  0  0  0
   49.3200   32.9010   26.5000 C   0  0  0  0  0  0  0  0  0  0  0  0
   48.2260   31.8690   26.5480 C   0  0  0  0  0  0  0  0  0  0  0  0
   46.9090   32.0830   26.6920 C   0  0  0  0  0  0  0  0  0  0  0  0
   46.3020   33.4500   26.8370 C   0  0  0  0  0  0  0  0  0  0  0  0
   45.7900   33.9660   25.5250 C   0  0  0  0  0  0  0  0  0  0  0  0
   46.2790   35.0540   24.9100 C   0  0  0  0  0  0  0  0  0  0  0  0
   47.4020   35.8880   25.4590 C   0  0  0  0  0  0  0  0  0  0  0  0
   46.9140   37.1000   26.2610 C   0  0  0  0  0  0  0  0  0  0  0  0
   48.0460   38.0390   26.6900 C   0  0  0  0  0  0  0  0  0  0  0  0
   48.4100   37.9120   28.1730 C   0  0  0  0  0  0  0  0  0  0  0  0
   47.4570   37.0050   28.9560 C   0  0  0  0  0  0  0  0  0  0  0  0
   48.1350   35.6810   29.3290 C   0  0  0  0  0  0  0  0  0  0  0  0
   48.8750   35.7610   30.6640 C   0  0  0  0  0  0  0  0  0  0  0  0
   47.9530   35.6960   31.8580 C   0  0  0  0  0  0  0  0  0  0  0  0
   46.9030   35.0750   31.9240 O   0  0  0  0  0  0  0  0  0  0  0  0
   48.4700   36.4150   32.8870 O   0  0  0  0  0  0  0  0  0  0  0  0
   52.8240   32.4646   26.5770 H   0  0  0  0  0  0  0  0  0  0  0  0
   54.0044   32.6481   25.2355 H   0  0  0  0  0  0  0  0  0  0  0  0
   52.4881   33.6110   25.2355 H   0  0  0  0  0  0  0  0  0  0  0  0
   52.4919   31.6320   23.6624 H   0  0  0  0  0  0  0  0  0  0  0  0
   52.5722   30.5782   25.1529 H   0  0  0  0  0  0  0  0  0  0  0  0
   50.2676   31.2597   23.9014 H   0  0  0  0  0  0  0  0  0  0  0  0
   50.4379   30.8901   25.6812 H   0  0  0  0  0  0  0  0  0  0  0  0
   51.0075   33.6439   25.3747 H   0  0  0  0  0  0  0  0  0  0  0  0
   49.5256   33.3044   24.3951 H   0  0  0  0  0  0  0  0  0  0  0  0
   50.0018   32.7026   27.3401 H   0  0  0  0  0  0  0  0  0  0  0  0
   48.8031   33.8709   26.5452 H   0  0  0  0  0  0  0  0  0  0  0  0
   48.5418   30.8195   26.4544 H   0  0  0  0  0  0  0  0  0  0  0  0
   46.2381   31.2114   26.7046 H   0  0  0  0  0  0  0  0  0  0  0  0
   45.4666   33.3963   27.5505 H   0  0  0  0  0  0  0  0  0  0  0  0
   47.0814   34.1373   27.1977 H   0  0  0  0  0  0  0  0  0  0  0  0
   44.9668   33.4216   25.0392 H   0  0  0  0  0  0  0  0  0  0  0  0
   45.8326   35.3521   23.9499 H   0  0  0  0  0  0  0  0  0  0  0  0
   48.0172   35.2571   26.1174 H   0  0  0  0  0  0  0  0  0  0  0  0
   47.9757   36.2709   24.6021 H   0  0  0  0  0  0  0  0  0  0  0  0
   46.2061   37.6679   25.6393 H   0  0  0  0  0  0  0  0  0  0  0  0
   46.4444   36.7157   27.1785 H   0  0  0  0  0  0  0  0  0  0  0  0
   48.9384   37.8066   26.0904 H   0  0  0  0  0  0  0  0  0  0  0  0
   47.6941   39.0685   26.5280 H   0  0  0  0  0  0  0  0  0  0  0  0
   49.4264   37.4983   28.2486 H   0  0  0  0  0  0  0  0  0  0  0  0
   48.3373   38.9175   28.6131 H   0  0  0  0  0  0  0  0  0  0  0  0
   47.1455   37.5207   29.8764 H   0  0  0  0  0  0  0  0  0  0  0  0
   46.5856   36.7843   28.3220 H   0  0  0  0  0  0  0  0  0  0  0  0
   47.3660   34.8975   29.3978 H   0  0  0  0  0  0  0  0  0  0  0  0
   48.8754   35.4518   28.5484 H   0  0  0  0  0  0  0  0  0  0  0  0
   49.5831   34.9212   30.7225 H   0  0  0  0  0  0  0  0  0  0  0  0
   49.3863   36.7344   30.6974 H   0  0  0  0  0  0  0  0  0  0  0  0
  1  2  1  0
  2  3  1  0
  3  4  1  0
  4  5  1  0
  5  6  1  0
  6  7  2  0
  7  8  1  0
  8  9  1  0
  9 10  2  0
 10 11  1  0
 11 12  1  0
 12 13  1  0
 13 14  1  0
 14 15  1  0
 15 16  1  0
 16 17  1  0
 17 18  1  0
 18 19  2  0
 18 20  1  0
  1 21  1  0
  1 22  1  0
  1 23  1  0
  2 24  1  0
  2 25  1  0
  3 26  1  0
  3 27  1  0
  4 28  1  0
  4 29  1  0
  5 30  1  0
  5 31  1  0
  6 32  1  0
  7 33  1  0
  8 34  1  0
  8 35  1  0
  9 36  1  0
 10 37  1  0
 11 38  1  0
 11 39  1  0
 12 40  1  0
 12 41  1  0
 13 42  1  0
 13 43  1  0
 14 44  1  0
 14 45  1  0
 15 46  1  0
 15 47  1  0
 16 48  1  0
 16 49  1  0
 17 50  1  0
 17 51  1  0
M  CHG  1  20  -1
M  END
>  <meeko>  (2) 
{"is_sidechain": [false], "free_energy": -5.525, "intermolecular_energy": -10.081, "internal_energy": -1.851}

$$$$
linoleate_run03
     RDKit          3D

 51 50  0  0  0  0  0  0  0  0999 V2000
   48.9050   29.7350   24.3990 C   0  0  0  0  0  0  0  0  0  0  0  0
   49.7840   30.8200   23.7970 C   0  0  0  0  0  0  0  0  0  0  0  0
   50.5510   31.6340   24.8410 C   0  0  0  0  0  0  0  0  0  0  0  0
   49.8560   32.9450   25.2190 C   0  0  0  0  0  0  0  0  0  0  0  0
   49.4560   32.9510   26.7000 C   0  0  0  0  0  0  0  0  0  0  0  0
   48.3000   32.0720   27.0930 C   0  0  0  0  0  0  0  0  0  0  0  0
   47.0370   32.4500   27.3470 C   0  0  0  0  0  0  0  0  0  0  0  0
   46.5690   33.8760   27.2750 C   0  0  0  0  0  0  0  0  0  0  0  0
   46.1380   34.2440   25.8850 C   0  0  0  0  0  0  0  0  0  0  0  0
   46.6820   35.2460   25.1780 C   0  0  0  0  0  0  0  0  0  0  0  0
   47.7900   36.1220   25.6890 C   0  0  0  0  0  0  0  0  0  0  0  0
   47.2850   37.4270   26.3140 C   0  0  0  0  0  0  0  0  0  0  0  0
   48.0560   37.8340   27.5740 C   0  0  0  0  0  0  0  0  0  0  0  0
   47.5590   37.1310   28.8420 C   0  0  0  0  0  0  0  0  0  0  0  0
   48.6230   36.2550   29.5070 C   0  0  0  0  0  0  0  0  0  0  0  0
   47.9880   35.2680   30.4950 C   0  0  0  0  0  0  0  0  0  0  0  0
   48.2440   35.6540   31.9510 C   0  0  0  0  0  0  0  0  0  0  0  0
   46.9970   36.1000   32.6750 C   0  0  0  0  0  0  0  0  0  0  0  0
   45.9240   35.5170   32.6860 O   0  0  0  0  0  0  0  0  0  0  0  0
   47.2370   37.2500   33.3540 O   0  0  0  0  0  0  0  0  0  0  0  0
   48.9515   29.7924   25.4965 H   0  0  0  0  0  0  0  0  0  0  0  0
   47.8659   29.8792   24.0680 H   0  0  0  0  0  0  0  0  0  0  0  0
   49.2617   28.7485   24.0680 H   0  0  0  0  0  0  0  0  0  0  0  0
   50.5118   30.3443   23.1231 H   0  0  0  0  0  0  0  0  0  0  0  0
   49.1189   31.5181   23.2675 H   0  0  0  0  0  0  0  0  0  0  0  0
   50.6601   31.0226   25.7489 H   0  0  0  0  0  0  0  0  0  0  0  0
   51.5230   31.8971   24.3983 H   0  0  0  0  0  0  0  0  0  0  0  0
   50.5424   33.7833   25.0289 H   0  0  0  0  0  0  0  0  0  0  0  0
   48.9451   33.0455   24.6107 H   0  0  0  0  0  0  0  0  0  0  0  0
   50.3318   32.6296   27.2828 H   0  0  0  0  0  0  0  0  0  0  0  0
   49.1193   33.9782   26.9035 H   0  0  0  0  0  0  0  0  0  0  0  0
   48.5140   30.9967   27.1825 H   0  0  0  0  0  0  0  0  0  0  0  0
   46.3065   31.6751   27.6223 H   0  0  0  0  0  0  0  0  0  0  0  0
   45.7183   34.0080   27.9597 H   0  0  0  0  0  0  0  0  0  0  0  0
   47.4067   34.5290   27.5609 H   0  0  0  0  0  0  0  0  0  0  0  0
   45.3307   33.6592   25.4199 H   0  0  0  0  0  0  0  0  0  0  0  0
   46.2945   35.4369   24.1664 H   0  0  0  0  0  0  0  0  0  0  0  0
   48.3541   35.5642   26.4510 H   0  0  0  0  0  0  0  0  0  0  0  0
   48.4181   36.3925   24.8274 H   0  0  0  0  0  0  0  0  0  0  0  0
   47.3828   38.2312   25.5699 H   0  0  0  0  0  0  0  0  0  0  0  0
   46.2389   37.2622   26.6113 H   0  0  0  0  0  0  0  0  0  0  0  0
   49.1176   37.5845   27.4297 H   0  0  0  0  0  0  0  0  0  0  0  0
   47.8999   38.9134   27.7173 H   0  0  0  0  0  0  0  0  0  0  0  0
   47.2379   37.8975   29.5627 H   0  0  0  0  0  0  0  0  0  0  0  0
   46.7327   36.4689   28.5440 H   0  0  0  0  0  0  0  0  0  0  0  0
   49.1601   35.6905   28.7305 H   0  0  0  0  0  0  0  0  0  0  0  0
   49.3154   36.9063   30.0605 H   0  0  0  0  0  0  0  0  0  0  0  0
   46.9020   35.2444   30.3217 H   0  0  0  0  0  0  0  0  0  0  0  0
   48.4454   34.2823   30.3244 H   0  0  0  0  0  0  0  0  0  0  0  0
   48.6603   34.7817   32.4761 H   0  0  0  0  0  0  0  0  0  0  0  0
   48.9416   36.5045   31.9463 H   0  0  0  0  0  0  0  0  0  0  0  0
  1  2  1  0
  2  3  1  0
  3  4  1  0
  4  5  1  0
  5  6  1  0
  6  7  2  0
  7  8  1  0
  8  9  1  0
  9 10  2  0
 10 11  1  0
 11 12  1  0
 12 13  1  0
 13 14  1  0
 14 15  1  0
 15 16  1  0
 16 17  1  0
 17 18  1  0
 18 19  2  0
 18 20  1  0
  1 21  1  0
  1 22  1  0
  1 23  1  0
  2 24  1  0
  2 25  1  0
  3 26  1  0
  3 27  1  0
  4 28  1  0
  4 29  1  0
  5 30  1  0
  5 31  1  0
  6 32  1  0
  7 33  1  0
  8 34  1  0
  8 35  1  0
  9 36  1  0
 10 37  1  0
 11 38  1  0
 11 39  1  0
 12 40  1  0
 12 41  1  0
 13 42  1  0
 13 43  1  0
 14 44  1  0
 14 45  1  0
 15 46  1  0
 15 47  1  0
 16 48  1  0
 16 49  1  0
 17 50  1  0
 17 51  1  0
M  CHG  1  20  -1
M  END
>  <meeko>  (3) 
{"is_sidechain": [false], "free_energy": -5.434, "intermolecular_energy": -9.657, "internal_energy": -2.11}

$$$$
linoleate_run03
     RDKit          3D

 51 50  0  0  0  0  0  0  0  0999 V2000
   46.8810   33.0320   28.3850 C   0  0  0  0  0  0  0  0  0  0  0  0
   46.1410   32.8730   27.0660 C   0  0  0  0  0  0  0  0  0  0  0  0
   46.2230   34.1090   26.1670 C   0  0  0  0  0  0  0  0  0  0  0  0
   47.5580   34.2320   25.4270 C   0  0  0  0  0  0  0  0  0  0  0  0
   48.3270   35.4800   25.8790 C   0  0  0  0  0  0  0  0  0  0  0  0
   47.5770   36.7840   25.8580 C   0  0  0  0  0  0  0  0  0  0  0  0
   47.5360   37.7160   26.8230 C   0  0  0  0  0  0  0  0  0  0  0  0
   48.2650   37.5900   28.1300 C   0  0  0  0  0  0  0  0  0  0  0  0
   47.3910   36.9890   29.1910 C   0  0  0  0  0  0  0  0  0  0  0  0
   47.8330   36.1260   30.1190 C   0  0  0  0  0  0  0  0  0  0  0  0
   49.2570   35.6560   30.2100 C   0  0  0  0  0  0  0  0  0  0  0  0
   49.3900   34.2500   30.8070 C   0  0  0  0  0  0  0  0  0  0  0  0
   48.3830   33.9700   31.9280 C   0  0  0  0  0  0  0  0  0  0  0  0
   48.8090   34.5450   33.2830 C   0  0  0  0  0  0  0  0  0  0  0  0
   48.4500   33.6400   34.4650 C   0  0  0  0  0  0  0  0  0  0  0  0
   47.5900   32.4540   34.0130 C   0  0  0  0  0  0  0  0  0  0  0  0
   46.2120   32.4480   34.6710 C   0  0  0  0  0  0  0  0  0  0  0  0
   45.3090   33.5480   34.1670 C   0  0  0  0  0  0  0  0  0  0  0  0
   44.9210   34.5120   34.8090 O   0  0  0  0  0  0  0  0  0  0  0  0
   44.9980   33.3360   32.8630 O   0  0  0  0  0  0  0  0  0  0  0  0
   46.1800   32.8814   29.2192 H   0  0  0  0  0  0  0  0  0  0  0  0
   47.6878   32.2867   28.4449 H   0  0  0  0  0  0  0  0  0  0  0  0
   47.3105   34.0429   28.4449 H   0  0  0  0  0  0  0  0  0  0  0  0
   46.5743   32.0192   26.5244 H   0  0  0  0  0  0  0  0  0  0  0  0
   45.0790   32.7185   27.3074 H   0  0  0  0  0  0  0  0  0  0  0  0
   45.4150   34.0536   25.4227 H   0  0  0  0  0  0  0  0  0  0  0  0
   46.1281   34.9915   26.8168 H   0  0  0  0  0  0  0  0  0  0  0  0
   48.1672   33.3399   25.6344 H   0  0  0  0  0  0  0  0  0  0  0  0
   47.3536   34.3187   24.3496 H   0  0  0  0  0  0  0  0  0  0  0  0
   48.6646   35.3070   26.9115 H   0  0  0  0  0  0  0  0  0  0  0  0
   49.1359   35.6015   25.1435 H   0  0  0  0  0  0  0  0  0  0  0  0
   46.9963   36.9979   24.9486 H   0  0  0  0  0  0  0  0  0  0  0  0
   46.9360   38.6210   26.6471 H   0  0  0  0  0  0  0  0  0  0  0  0
   49.1467   36.9480   27.9871 H   0  0  0  0  0  0  0  0  0  0  0  0
   48.5630   38.5969   28.4576 H   0  0  0  0  0  0  0  0  0  0  0  0
   46.3281   37.2716   29.2094 H   0  0  0  0  0  0  0  0  0  0  0  0
   47.1116   35.7409   30.8548 H   0  0  0  0  0  0  0  0  0  0  0  0
   49.6885   35.6488   29.1982 H   0  0  0  0  0  0  0  0  0  0  0  0
   49.7884   36.3481   30.8798 H   0  0  0  0  0  0  0  0  0  0  0  0
   49.2333   33.5138   30.0049 H   0  0  0  0  0  0  0  0  0  0  0  0
   50.3957   34.1762   31.2464 H   0  0  0  0  0  0  0  0  0  0  0  0
   47.4166   34.4147   31.6483 H   0  0  0  0  0  0  0  0  0  0  0  0
   48.3189   32.8779   32.0431 H   0  0  0  0  0  0  0  0  0  0  0  0
   49.8993   34.6906   33.2733 H   0  0  0  0  0  0  0  0  0  0  0  0
   48.2656   35.4915   33.4206 H   0  0  0  0  0  0  0  0  0  0  0  0
   49.3763   33.2590   34.9197 H   0  0  0  0  0  0  0  0  0  0  0  0
   47.8749   34.2300   35.1938 H   0  0  0  0  0  0  0  0  0  0  0  0
   47.4600   32.5078   32.9220 H   0  0  0  0  0  0  0  0  0  0  0  0
   48.1082   31.5312   34.3130 H   0  0  0  0  0  0  0  0  0  0  0  0
   45.7312   31.4798   34.4673 H   0  0  0  0  0  0  0  0  0  0  0  0
   46.3625   32.6154   35.7477 H   0  0  0  0  0  0  0  0  0  0  0  0
  1  2  1  0
  2  3  1  0
  3  4  1  0
  4  5  1  0
  5  6  1  0
  6  7  2  0
  7  8  1  0
  8  9  1  0
  9 10  2  0
 10 11  1  0
 11 12  1  0
 12 13  1  0
 13 14  1  0
 14 15  1  0
 15 16  1  0
 16 17  1  0
 17 18  1  0
 18 19  2  0
 18 20  1  0
  1 21  1  0
  1 22  1  0
  1 23  1  0
  2 24  1  0
  2 25  1  0
  3 26  1  0
  3 27  1  0
  4 28  1  0
  4 29  1  0
  5 30  1  0
  5 31  1  0
  6 32  1  0
  7 33  1  0
  8 34  1  0
  8 35  1  0
  9 36  1  0
 10 37  1  0
 11 38  1  0
 11 39  1  0
 12 40  1  0
 12 41  1  0
 13 42  1  0
 13 43  1  0
 14 44  1  0
 14 45  1  0
 15 46  1  0
 15 47  1  0
 16 48  1  0
 16 49  1  0
 17 50  1  0
 17 51  1  0
M  CHG  1  20  -1
M  END
>  <meeko>  (4) 
{"is_sidechain": [false], "free_energy": -5.362, "intermolecular_energy": -9.759, "internal_energy": -1.875}

$$$$
linoleate_run03
     RDKit          3D

 51 50  0  0  0  0  0  0  0  0999 V2000
   46.7650   33.5010   27.6970 C   0  0  0  0  0  0  0  0  0  0  0  0
   46.0910   33.5280   26.3340 C   0  0  0  0  0  0  0  0  0  0  0  0
   46.8360   34.3760   25.3010 C   0  0  0  0  0  0  0  0  0  0  0  0
   47.7510   35.4310   25.9280 C   0  0  0  0  0  0  0  0  0  0  0  0
   47.0320   36.7800   26.0580 C   0  0  0  0  0  0  0  0  0  0  0  0
   47.8430   37.9340   26.5800 C   0  0  0  0  0  0  0  0  0  0  0  0
   48.2130   38.1620   27.8510 C   0  0  0  0  0  0  0  0  0  0  0  0
   47.8520   37.2560   28.9940 C   0  0  0  0  0  0  0  0  0  0  0  0
   48.9830   36.3350   29.3440 C   0  0  0  0  0  0  0  0  0  0  0  0
   48.9500   35.4710   30.3700 C   0  0  0  0  0  0  0  0  0  0  0  0
   47.7740   35.3170   31.2930 C   0  0  0  0  0  0  0  0  0  0  0  0
   47.7030   33.9340   31.9510 C   0  0  0  0  0  0  0  0  0  0  0  0
   47.8750   33.9780   33.4730 C   0  0  0  0  0  0  0  0  0  0  0  0
   46.8920   33.0710   34.2210 C   0  0  0  0  0  0  0  0  0  0  0  0
   45.4410   33.2430   33.7640 C   0  0  0  0  0  0  0  0  0  0  0  0
   44.7800   34.4390   34.4600 C   0  0  0  0  0  0  0  0  0  0  0  0
   44.4720   35.5800   33.4920 C   0  0  0  0  0  0  0  0  0  0  0  0
   43.3830   36.5000   33.9870 C   0  0  0  0  0  0  0  0  0  0  0  0
   42.1850   36.3700   33.7900 O   0  0  0  0  0  0  0  0  0  0  0  0
   43.9200   37.5040   34.7260 O   0  0  0  0  0  0  0  0  0  0  0  0
   45.9988   33.5317   28.4856 H   0  0  0  0  0  0  0  0  0  0  0  0
   47.3559   32.5785   27.7956 H   0  0  0  0  0  0  0  0  0  0  0  0
   47.4278   34.3733   27.7956 H   0  0  0  0  0  0  0  0  0  0  0  0
   46.0270   32.4967   25.9568 H   0  0  0  0  0  0  0  0  0  0  0  0
   45.0996   33.9841   26.4724 H   0  0  0  0  0  0  0  0  0  0  0  0
   47.4492   33.7081   24.6782 H   0  0  0  0  0  0  0  0  0  0  0  0
   46.0772   34.9122   24.7122 H   0  0  0  0  0  0  0  0  0  0  0  0
   48.0593   35.0906   26.9275 H   0  0  0  0  0  0  0  0  0  0  0  0
   48.6276   35.5641   25.2770 H   0  0  0  0  0  0  0  0  0  0  0  0
   46.6627   37.0576   25.0597 H   0  0  0  0  0  0  0  0  0  0  0  0
   46.2473   36.6161   26.8112 H   0  0  0  0  0  0  0  0  0  0  0  0
   48.1704   38.6756   25.8365 H   0  0  0  0  0  0  0  0  0  0  0  0
   48.8118   39.0592   28.0664 H   0  0  0  0  0  0  0  0  0  0  0  0
   47.6061   37.8701   29.8729 H   0  0  0  0  0  0  0  0  0  0  0  0
   46.9900   36.6439   28.6902 H   0  0  0  0  0  0  0  0  0  0  0  0
   49.8911   36.3699   28.7243 H   0  0  0  0  0  0  0  0  0  0  0  0
   49.8336   34.8397   30.5455 H   0  0  0  0  0  0  0  0  0  0  0  0
   47.8479   36.0777   32.0841 H   0  0  0  0  0  0  0  0  0  0  0  0
   46.8637   35.4394   30.6877 H   0  0  0  0  0  0  0  0  0  0  0  0
   46.7234   33.4886   31.7230 H   0  0  0  0  0  0  0  0  0  0  0  0
   48.5337   33.3373   31.5461 H   0  0  0  0  0  0  0  0  0  0  0  0
   48.8991   33.6598   33.7179 H   0  0  0  0  0  0  0  0  0  0  0  0
   47.6737   35.0108   33.7937 H   0  0  0  0  0  0  0  0  0  0  0  0
   47.1881   32.0245   34.0564 H   0  0  0  0  0  0  0  0  0  0  0  0
   46.9341   33.3516   35.2838 H   0  0  0  0  0  0  0  0  0  0  0  0
   45.4241   33.4062   32.6763 H   0  0  0  0  0  0  0  0  0  0  0  0
   44.8819   32.3331   34.0277 H   0  0  0  0  0  0  0  0  0  0  0  0
   43.8393   34.1035   34.9211 H   0  0  0  0  0  0  0  0  0  0  0  0
   45.4853   34.8200   35.2133 H   0  0  0  0  0  0  0  0  0  0  0  0
   45.3883   36.1703   33.3441 H   0  0  0  0  0  0  0  0  0  0  0  0
   44.1172   35.1273   32.5544 H   0  0  0  0  0  0  0  0  0  0  0  0
  1  2  1  0
  2  3  1  0
  3  4  1  0
  4  5  1  0
  5  6  1  0
  6  7  2  0
  7  8  1  0
  8  9  1  0
  9 10  2  0
 10 11  1  0
 11 12  1  0
 12 13  1  0
 13 14  1  0
 14 15  1  0
 15 16  1  0
 16 17  1  0
 17 18  1  0
 18 19  2  0
 18 20  1  0
  1 21  1  0
  1 22  1  0
  1 23  1  0
  2 24  1  0
  2 25  1  0
  3 26  1  0
  3 27  1  0
  4 28  1  0
  4 29  1  0
  5 30  1  0
  5 31  1  0
  6 32  1  0
  7 33  1  0
  8 34  1  0
  8 35  1  0
  9 36  1  0
 10 37  1  0
 11 38  1  0
 11 39  1  0
 12 40  1  0
 12 41  1  0
 13 42  1  0
 13 43  1  0
 14 44  1  0
 14 45  1  0
 15 46  1  0
 15 47  1  0
 16 48  1  0
 16 49  1  0
 17 50  1  0
 17 51  1  0
M  CHG  1  20  -1
M  END
>  <meeko>  (5) 
{"is_sidechain": [false], "free_energy": -5.355, "intermolecular_energy": -10.138, "internal_energy": -1.485}

$$$$
linoleate_run03
     RDKit          3D

 51 50  0  0  0  0  0  0  0  0999 V2000
   51.9190   32.4510   25.2790 C   0  0  0  0  0  0  0  0  0  0  0  0
   50.4890   32.9550   25.3990 C   0  0  0  0  0  0  0  0  0  0  0  0
   49.4600   32.0360   24.7390 C   0  0  0  0  0  0  0  0  0  0  0  0
   48.4350   31.4660   25.7250 C   0  0  0  0  0  0  0  0  0  0  0  0
   48.2260   32.4130   26.9130 C   0  0  0  0  0  0  0  0  0  0  0  0
   46.9030   33.1260   26.9880 C   0  0  0  0  0  0  0  0  0  0  0  0
   46.6160   34.3600   26.5450 C   0  0  0  0  0  0  0  0  0  0  0  0
   47.6210   35.2560   25.8800 C   0  0  0  0  0  0  0  0  0  0  0  0
   47.1130   36.6630   25.7630 C   0  0  0  0  0  0  0  0  0  0  0  0
   47.4160   37.6390   26.6320 C   0  0  0  0  0  0  0  0  0  0  0  0
   48.3040   37.4450   27.8280 C   0  0  0  0  0  0  0  0  0  0  0  0
   47.5370   37.0180   29.0840 C   0  0  0  0  0  0  0  0  0  0  0  0
   48.3830   36.1940   30.0610 C   0  0  0  0  0  0  0  0  0  0  0  0
   47.9510   34.7260   30.1500 C   0  0  0  0  0  0  0  0  0  0  0  0
   48.2850   34.0760   31.4940 C   0  0  0  0  0  0  0  0  0  0  0  0
   48.0510   35.0510   32.6540 C   0  0  0  0  0  0  0  0  0  0  0  0
   46.5740   35.1690   33.0270 C   0  0  0  0  0  0  0  0  0  0  0  0
   46.0560   36.5860   32.9580 C   0  0  0  0  0  0  0  0  0  0  0  0
   44.9340   36.9260   32.6170 O   0  0  0  0  0  0  0  0  0  0  0  0
   47.0170   37.4550   33.3640 O   0  0  0  0  0  0  0  0  0  0  0  0
   52.3409   32.3023   26.2839 H   0  0  0  0  0  0  0  0  0  0  0  0
   51.9266   31.4960   24.7331 H   0  0  0  0  0  0  0  0  0  0  0  0
   52.5237   33.1902   24.7331 H   0  0  0  0  0  0  0  0  0  0  0  0
   50.2404   33.0457   26.4667 H   0  0  0  0  0  0  0  0  0  0  0  0
   50.4419   33.9214   24.8757 H   0  0  0  0  0  0  0  0  0  0  0  0
   48.9225   32.6096   23.9695 H   0  0  0  0  0  0  0  0  0  0  0  0
   50.0103   31.1842   24.3127 H   0  0  0  0  0  0  0  0  0  0  0  0
   47.4760   31.3250   25.2049 H   0  0  0  0  0  0  0  0  0  0  0  0
   48.8130   30.5058   26.1059 H   0  0  0  0  0  0  0  0  0  0  0  0
   48.3379   31.8215   27.8337 H   0  0  0  0  0  0  0  0  0  0  0  0
   48.9745   33.2084   26.7821 H   0  0  0  0  0  0  0  0  0  0  0  0
   46.0772   32.5730   27.4595 H   0  0  0  0  0  0  0  0  0  0  0  0
   45.5902   34.7349   26.6760 H   0  0  0  0  0  0  0  0  0  0  0  0
   48.5461   35.2586   26.4751 H   0  0  0  0  0  0  0  0  0  0  0  0
   47.8076   34.8717   24.8663 H   0  0  0  0  0  0  0  0  0  0  0  0
   46.4547   36.9081   24.9165 H   0  0  0  0  0  0  0  0  0  0  0  0
   46.9900   38.6383   26.4589 H   0  0  0  0  0  0  0  0  0  0  0  0
   49.0464   36.6688   27.5905 H   0  0  0  0  0  0  0  0  0  0  0  0
   48.7764   38.4142   28.0461 H   0  0  0  0  0  0  0  0  0  0  0  0
   47.1861   37.9222   29.6029 H   0  0  0  0  0  0  0  0  0  0  0  0
   46.7043   36.3788   28.7553 H   0  0  0  0  0  0  0  0  0  0  0  0
   49.4316   36.2297   29.7305 H   0  0  0  0  0  0  0  0  0  0  0  0
   48.2474   36.6341   31.0599 H   0  0  0  0  0  0  0  0  0  0  0  0
   46.8629   34.6726   29.9975 H   0  0  0  0  0  0  0  0  0  0  0  0
   48.5062   34.1761   29.3759 H   0  0  0  0  0  0  0  0  0  0  0  0
   47.6458   33.1918   31.6338 H   0  0  0  0  0  0  0  0  0  0  0  0
   49.3470   33.7894   31.4883 H   0  0  0  0  0  0  0  0  0  0  0  0
   48.6098   34.6956   33.5323 H   0  0  0  0  0  0  0  0  0  0  0  0
   48.3959   36.0446   32.3317 H   0  0  0  0  0  0  0  0  0  0  0  0
   45.9874   34.5479   32.3341 H   0  0  0  0  0  0  0  0  0  0  0  0
   46.4715   34.8331   34.0694 H   0  0  0  0  0  0  0  0  0  0  0  0
  1  2  1  0
  2  3  1  0
  3  4  1  0
  4  5  1  0
  5  6  1  0
  6  7  2  0
  7  8  1  0
  8  9  1  0
  9 10  2  0
 10 11  1  0
 11 12  1  0
 12 13  1  0
 13 14  1  0
 14 15  1  0
 15 16  1  0
 16 17  1  0
 17 18  1  0
 18 19  2  0
 18 20  1  0
  1 21  1  0
  1 22  1  0
  1 23  1  0
  2 24  1  0
  2 25  1  0
  3 26  1  0
  3 27  1  0
  4 28  1  0
  4 29  1  0
  5 30  1  0
  5 31  1  0
  6 32  1  0
  7 33  1  0
  8 34  1  0
  8 35  1  0
  9 36  1  0
 10 37  1  0
 11 38  1  0
 11 39  1  0
 12 40  1  0
 12 41  1  0
 13 42  1  0
 13 43  1  0
 14 44  1  0
 14 45  1  0
 15 46  1  0
 15 47  1  0
 16 48  1  0
 16 49  1  0
 17 50  1  0
 17 51  1  0
M  CHG  1  20  -1
M  END
>  <meeko>  (6) 
{"is_sidechain": [false], "free_energy": -5.351, "intermolecular_energy": -9.681, "internal_energy": -1.934}

$$$$
linoleate_run03
     RDKit          3D

 51 50  0  0  0  0  0  0  0  0999 V2000
   50.5810   32.7790   25.2430 C   0  0  0  0  0  0  0  0  0  0  0  0
   49.1720   32.4190   24.7990 C   0  0  0  0  0  0  0  0  0  0  0  0
   48.3610   31.6910   25.8740 C   0  0  0  0  0  0  0  0  0  0  0  0
   46.8470   31.8280   25.6870 C   0  0  0  0  0  0  0  0  0  0  0  0
   46.3230   33.1140   26.3390 C   0  0  0  0  0  0  0  0  0  0  0  0
   45.9100   34.2240   25.4110 C   0  0  0  0  0  0  0  0  0  0  0  0
   46.5810   35.3560   25.1450 C   0  0  0  0  0  0  0  0  0  0  0  0
   47.9060   35.7000   25.7660 C   0  0  0  0  0  0  0  0  0  0  0  0
   48.0610   37.1810   25.9450 C   0  0  0  0  0  0  0  0  0  0  0  0
   47.7870   37.8260   27.0890 C   0  0  0  0  0  0  0  0  0  0  0  0
   47.2920   37.1440   28.3330 C   0  0  0  0  0  0  0  0  0  0  0  0
   48.3980   36.4060   29.0960 C   0  0  0  0  0  0  0  0  0  0  0  0
   48.0310   34.9610   29.4500 C   0  0  0  0  0  0  0  0  0  0  0  0
   47.9870   34.6990   30.9590 C   0  0  0  0  0  0  0  0  0  0  0  0
   47.7180   35.9590   31.7860 C   0  0  0  0  0  0  0  0  0  0  0  0
   46.8840   35.6360   33.0310 C   0  0  0  0  0  0  0  0  0  0  0  0
   46.7220   34.1330   33.2510 C   0  0  0  0  0  0  0  0  0  0  0  0
   45.4140   33.7660   33.9100 C   0  0  0  0  0  0  0  0  0  0  0  0
   44.8220   34.4260   34.7500 O   0  0  0  0  0  0  0  0  0  0  0  0
   44.9530   32.5910   33.4110 O   0  0  0  0  0  0  0  0  0  0  0  0
   50.6274   32.7908   26.3420 H   0  0  0  0  0  0  0  0  0  0  0  0
   51.2898   32.0331   24.8541 H   0  0  0  0  0  0  0  0  0  0  0  0
   50.8451   33.7735   24.8541 H   0  0  0  0  0  0  0  0  0  0  0  0
   48.6434   33.3460   24.5320 H   0  0  0  0  0  0  0  0  0  0  0  0
   49.2671   31.7326   23.9447 H   0  0  0  0  0  0  0  0  0  0  0  0
   48.6213   30.6227   25.8441 H   0  0  0  0  0  0  0  0  0  0  0  0
   48.6130   32.1520   26.8404 H   0  0  0  0  0  0  0  0  0  0  0  0
   46.6188   31.8521   24.6112 H   0  0  0  0  0  0  0  0  0  0  0  0
   46.3569   30.9684   26.1676 H   0  0  0  0  0  0  0  0  0  0  0  0
   45.4470   32.8457   26.9478 H   0  0  0  0  0  0  0  0  0  0  0  0
   47.1738   33.5159   26.9087 H   0  0  0  0  0  0  0  0  0  0  0  0
   44.9492   34.0932   24.8915 H   0  0  0  0  0  0  0  0  0  0  0  0
   46.1377   36.0696   24.4349 H   0  0  0  0  0  0  0  0  0  0  0  0
   47.9776   35.2117   26.7491 H   0  0  0  0  0  0  0  0  0  0  0  0
   48.7035   35.3481   25.0950 H   0  0  0  0  0  0  0  0  0  0  0  0
   48.4198   37.7721   25.0895 H   0  0  0  0  0  0  0  0  0  0  0  0
   47.9330   38.9159   27.1179 H   0  0  0  0  0  0  0  0  0  0  0  0
   46.8549   37.9034   28.9980 H   0  0  0  0  0  0  0  0  0  0  0  0
   46.5512   36.3927   28.0220 H   0  0  0  0  0  0  0  0  0  0  0  0
   49.3037   36.3931   28.4718 H   0  0  0  0  0  0  0  0  0  0  0  0
   48.5543   36.9434   30.0430 H   0  0  0  0  0  0  0  0  0  0  0  0
   47.0396   34.7392   29.0281 H   0  0  0  0  0  0  0  0  0  0  0  0
   48.8147   34.3136   29.0297 H   0  0  0  0  0  0  0  0  0  0  0  0
   47.1887   33.9704   31.1635 H   0  0  0  0  0  0  0  0  0  0  0  0
   48.9779   34.3225   31.2528 H   0  0  0  0  0  0  0  0  0  0  0  0
   48.6782   36.3941   32.1001 H   0  0  0  0  0  0  0  0  0  0  0  0
   47.1552   36.6708   31.1642 H   0  0  0  0  0  0  0  0  0  0  0  0
   47.3809   36.0701   33.9112 H   0  0  0  0  0  0  0  0  0  0  0  0
   45.8811   36.0627   32.8822 H   0  0  0  0  0  0  0  0  0  0  0  0
   46.7751   33.6290   32.2747 H   0  0  0  0  0  0  0  0  0  0  0  0
   47.5293   33.8125   33.9259 H   0  0  0  0  0  0  0  0  0  0  0  0
  1  2  1  0
  2  3  1  0
  3  4  1  0
  4  5  1  0
  5  6  1  0
  6  7  2  0
  7  8  1  0
  8  9  1  0
  9 10  2  0
 10 11  1  0
 11 12  1  0
 12 13  1  0
 13 14  1  0
 14 15  1  0
 15 16  1  0
 16 17  1  0
 17 18  1  0
 18 19  2  0
 18 20  1  0
  1 21  1  0
  1 22  1  0
  1 23  1  0
  2 24  1  0
  2 25  1  0
  3 26  1  0
  3 27  1  0
  4 28  1  0
  4 29  1  0
  5 30  1  0
  5 31  1  0
  6 32  1  0
  7 33  1  0
  8 34  1  0
  8 35  1  0
  9 36  1  0
 10 37  1  0
 11 38  1  0
 11 39  1  0
 12 40  1  0
 12 41  1  0
 13 42  1  0
 13 43  1  0
 14 44  1  0
 14 45  1  0
 15 46  1  0
 15 47  1  0
 16 48  1  0
 16 49  1  0
 17 50  1  0
 17 51  1  0
M  CHG  1  20  -1
M  END
>  <meeko>  (7) 
{"is_sidechain": [false], "free_energy": -5.343, "intermolecular_energy": -10.007, "internal_energy": -1.595}

$$$$
linoleate_run03
     RDKit          3D

 51 50  0  0  0  0  0  0  0  0999 V2000
   49.2060   32.1940   24.8240 C   0  0  0  0  0  0  0  0  0  0  0  0
   48.6910   32.6500   26.1800 C   0  0  0  0  0  0  0  0  0  0  0  0
   47.1800   32.8890   26.2110 C   0  0  0  0  0  0  0  0  0  0  0  0
   46.7530   34.1670   25.4820 C   0  0  0  0  0  0  0  0  0  0  0  0
   47.6960   35.3310   25.8090 C   0  0  0  0  0  0  0  0  0  0  0  0
   47.1200   36.7180   25.7110 C   0  0  0  0  0  0  0  0  0  0  0  0
   47.3840   37.7680   26.5050 C   0  0  0  0  0  0  0  0  0  0  0  0
   48.3350   37.7110   27.6670 C   0  0  0  0  0  0  0  0  0  0  0  0
   47.6140   37.4460   28.9560 C   0  0  0  0  0  0  0  0  0  0  0  0
   47.6390   36.2660   29.5940 C   0  0  0  0  0  0  0  0  0  0  0  0
   48.3930   35.0650   29.0970 C   0  0  0  0  0  0  0  0  0  0  0  0
   48.5750   33.9840   30.1680 C   0  0  0  0  0  0  0  0  0  0  0  0
   49.4390   34.4400   31.3490 C   0  0  0  0  0  0  0  0  0  0  0  0
   48.7110   34.3660   32.6960 C   0  0  0  0  0  0  0  0  0  0  0  0
   47.9680   35.6550   33.0560 C   0  0  0  0  0  0  0  0  0  0  0  0
   46.4500   35.4690   32.9430 C   0  0  0  0  0  0  0  0  0  0  0  0
   45.7000   36.7990   32.9030 C   0  0  0  0  0  0  0  0  0  0  0  0
   44.3640   36.7490   33.6030 C   0  0  0  0  0  0  0  0  0  0  0  0
   44.0040   37.4710   34.5200 O   0  0  0  0  0  0  0  0  0  0  0  0
   43.5810   35.7900   33.0470 O   0  0  0  0  0  0  0  0  0  0  0  0
   50.0227   31.4709   24.9662 H   0  0  0  0  0  0  0  0  0  0  0  0
   48.3886   31.7182   24.2624 H   0  0  0  0  0  0  0  0  0  0  0  0
   49.5794   33.0630   24.2624 H   0  0  0  0  0  0  0  0  0  0  0  0
   48.9364   31.8772   26.9233 H   0  0  0  0  0  0  0  0  0  0  0  0
   49.1751   33.6123   26.4027 H   0  0  0  0  0  0  0  0  0  0  0  0
   46.6812   32.0321   25.7345 H   0  0  0  0  0  0  0  0  0  0  0  0
   46.8901   33.0036   27.2659 H   0  0  0  0  0  0  0  0  0  0  0  0
   46.7703   33.9846   24.3974 H   0  0  0  0  0  0  0  0  0  0  0  0
   45.7390   34.4356   25.8131 H   0  0  0  0  0  0  0  0  0  0  0  0
   48.0529   35.1908   26.8400 H   0  0  0  0  0  0  0  0  0  0  0  0
   48.4816   35.2902   25.0401 H   0  0  0  0  0  0  0  0  0  0  0  0
   46.4012   36.8911   24.8965 H   0  0  0  0  0  0  0  0  0  0  0  0
   46.8770   38.7210   26.2936 H   0  0  0  0  0  0  0  0  0  0  0  0
   49.0638   36.9056   27.4931 H   0  0  0  0  0  0  0  0  0  0  0  0
   48.8394   38.6852   27.7480 H   0  0  0  0  0  0  0  0  0  0  0  0
   47.0321   38.2655   29.4031 H   0  0  0  0  0  0  0  0  0  0  0  0
   47.0756   36.1724   30.5341 H   0  0  0  0  0  0  0  0  0  0  0  0
   47.8405   34.6302   28.2510 H   0  0  0  0  0  0  0  0  0  0  0  0
   49.3961   35.4065   28.8018 H   0  0  0  0  0  0  0  0  0  0  0  0
   47.5832   33.7005   30.5500 H   0  0  0  0  0  0  0  0  0  0  0  0
   49.0934   33.1383   29.6925 H   0  0  0  0  0  0  0  0  0  0  0  0
   50.3306   33.7976   31.3981 H   0  0  0  0  0  0  0  0  0  0  0  0
   49.6978   35.4950   31.1756 H   0  0  0  0  0  0  0  0  0  0  0  0
   47.9820   33.5433   32.6538 H   0  0  0  0  0  0  0  0  0  0  0  0
   49.4754   34.2043   33.4703 H   0  0  0  0  0  0  0  0  0  0  0  0
   48.2191   35.9375   34.0890 H   0  0  0  0  0  0  0  0  0  0  0  0
   48.2761   36.4430   32.3531 H   0  0  0  0  0  0  0  0  0  0  0  0
   46.2304   34.9121   32.0202 H   0  0  0  0  0  0  0  0  0  0  0  0
   46.1126   34.9213   33.8353 H   0  0  0  0  0  0  0  0  0  0  0  0
   46.3212   37.5655   33.3895 H   0  0  0  0  0  0  0  0  0  0  0  0
   45.5067   37.0338   31.8459 H   0  0  0  0  0  0  0  0  0  0  0  0
  1  2  1  0
  2  3  1  0
  3  4  1  0
  4  5  1  0
  5  6  1  0
  6  7  2  0
  7  8  1  0
  8  9  1  0
  9 10  2  0
 10 11  1  0
 11 12  1  0
 12 13  1  0
 13 14  1  0
 14 15  1  0
 15 16  1  0
 16 17  1  0
 17 18  1  0
 18 19  2  0
 18 20  1  0
  1 21  1  0
  1 22  1  0
  1 23  1  0
  2 24  1  0
  2 25  1  0
  3 26  1  0
  3 27  1  0
  4 28  1  0
  4 29  1  0
  5 30  1  0
  5 31  1  0
  6 32  1  0
  7 33  1  0
  8 34  1  0
  8 35  1  0
  9 36  1  0
 10 37  1  0
 11 38  1  0
 11 39  1  0
 12 40  1  0
 12 41  1  0
 13 42  1  0
 13 43  1  0
 14 44  1  0
 14 45  1  0
 15 46  1  0
 15 47  1  0
 16 48  1  0
 16 49  1  0
 17 50  1  0
 17 51  1  0
M  CHG  1  20  -1
M  END
>  <meeko>  (8) 
{"is_sidechain": [false], "free_energy": -5.259, "intermolecular_energy": -9.682, "internal_energy": -1.765}

$$$$
linoleate_run03
     RDKit          3D

 51 50  0  0  0  0  0  0  0  0999 V2000
   50.5160   32.9490   25.2640 C   0  0  0  0  0  0  0  0  0  0  0  0
   49.1540   32.3730   24.9090 C   0  0  0  0  0  0  0  0  0  0  0  0
   48.2140   32.2430   26.1090 C   0  0  0  0  0  0  0  0  0  0  0  0
   46.7410   32.4690   25.7520 C   0  0  0  0  0  0  0  0  0  0  0  0
   46.2410   33.8130   26.2950 C   0  0  0  0  0  0  0  0  0  0  0  0
   46.2770   34.9820   25.3480 C   0  0  0  0  0  0  0  0  0  0  0  0
   47.0560   36.0720   25.4280 C   0  0  0  0  0  0  0  0  0  0  0  0
   48.0540   36.2990   26.5290 C   0  0  0  0  0  0  0  0  0  0  0  0
   47.4760   37.1370   27.6310 C   0  0  0  0  0  0  0  0  0  0  0  0
   47.7780   36.9730   28.9280 C   0  0  0  0  0  0  0  0  0  0  0  0
   48.7340   35.9310   29.4360 C   0  0  0  0  0  0  0  0  0  0  0  0
   48.0290   34.7180   30.0530 C   0  0  0  0  0  0  0  0  0  0  0  0
   47.6050   34.9390   31.5090 C   0  0  0  0  0  0  0  0  0  0  0  0
   48.7560   34.7760   32.5070 C   0  0  0  0  0  0  0  0  0  0  0  0
   48.3170   34.1810   33.8480 C   0  0  0  0  0  0  0  0  0  0  0  0
   47.6850   32.7970   33.6590 C   0  0  0  0  0  0  0  0  0  0  0  0
   46.4420   32.6000   34.5250 C   0  0  0  0  0  0  0  0  0  0  0  0
   45.3080   33.5260   34.1550 C   0  0  0  0  0  0  0  0  0  0  0  0
   44.8720   34.4390   34.8390 O   0  0  0  0  0  0  0  0  0  0  0  0
   44.8420   33.2220   32.9170 O   0  0  0  0  0  0  0  0  0  0  0  0
   50.6214   32.9936   26.3580 H   0  0  0  0  0  0  0  0  0  0  0  0
   51.3057   32.3078   24.8454 H   0  0  0  0  0  0  0  0  0  0  0  0
   50.6060   33.9622   24.8454 H   0  0  0  0  0  0  0  0  0  0  0  0
   48.6806   33.0315   24.1658 H   0  0  0  0  0  0  0  0  0  0  0  0
   49.3237   31.3582   24.5199 H   0  0  0  0  0  0  0  0  0  0  0  0
   48.3205   31.2315   26.5281 H   0  0  0  0  0  0  0  0  0  0  0  0
   48.4977   33.0227   26.8312 H   0  0  0  0  0  0  0  0  0  0  0  0
   46.6313   32.4606   24.6575 H   0  0  0  0  0  0  0  0  0  0  0  0
   46.1441   31.6647   26.2068 H   0  0  0  0  0  0  0  0  0  0  0  0
   45.1975   33.6755   26.6147 H   0  0  0  0  0  0  0  0  0  0  0  0
   46.9395   34.0752   27.1033 H   0  0  0  0  0  0  0  0  0  0  0  0
   45.5863   34.9381   24.4930 H   0  0  0  0  0  0  0  0  0  0  0  0
   46.9590   36.8400   24.6465 H   0  0  0  0  0  0  0  0  0  0  0  0
   48.3581   35.3259   26.9419 H   0  0  0  0  0  0  0  0  0  0  0  0
   48.9182   36.8326   26.1067 H   0  0  0  0  0  0  0  0  0  0  0  0
   46.7643   37.9309   27.3604 H   0  0  0  0  0  0  0  0  0  0  0  0
   47.2987   37.6389   29.6607 H   0  0  0  0  0  0  0  0  0  0  0  0
   49.3542   35.5855   28.5957 H   0  0  0  0  0  0  0  0  0  0  0  0
   49.3373   36.3979   30.2285 H   0  0  0  0  0  0  0  0  0  0  0  0
   47.1310   34.4960   29.4577 H   0  0  0  0  0  0  0  0  0  0  0  0
   48.7475   33.8851   30.0458 H   0  0  0  0  0  0  0  0  0  0  0  0
   47.2019   35.9580   31.6044 H   0  0  0  0  0  0  0  0  0  0  0  0
   46.8542   34.1719   31.7496 H   0  0  0  0  0  0  0  0  0  0  0  0
   49.5124   34.1128   32.0620 H   0  0  0  0  0  0  0  0  0  0  0  0
   49.1537   35.7809   32.7117 H   0  0  0  0  0  0  0  0  0  0  0  0
   49.1950   34.0882   34.5042 H   0  0  0  0  0  0  0  0  0  0  0  0
   47.5668   34.8486   34.2969 H   0  0  0  0  0  0  0  0  0  0  0  0
   47.4016   32.6796   32.6027 H   0  0  0  0  0  0  0  0  0  0  0  0
   48.4279   32.0451   33.9635 H   0  0  0  0  0  0  0  0  0  0  0  0
   46.0972   31.5617   34.4111 H   0  0  0  0  0  0  0  0  0  0  0  0
   46.7263   32.8287   35.5627 H   0  0  0  0  0  0  0  0  0  0  0  0
  1  2  1  0
  2  3  1  0
  3  4  1  0
  4  5  1  0
  5  6  1  0
  6  7  2  0
  7  8  1  0
  8  9  1  0
  9 10  2  0
 10 11  1  0
 11 12  1  0
 12 13  1  0
 13 14  1  0
 14 15  1  0
 15 16  1  0
 16 17  1  0
 17 18  1  0
 18 19  2  0
 18 20  1  0
  1 21  1  0
  1 22  1  0
  1 23  1  0
  2 24  1  0
  2 25  1  0
  3 26  1  0
  3 27  1  0
  4 28  1  0
  4 29  1  0
  5 30  1  0
  5 31  1  0
  6 32  1  0
  7 33  1  0
  8 34  1  0
  8 35  1  0
  9 36  1  0
 10 37  1  0
 11 38  1  0
 11 39  1  0
 12 40  1  0
 12 41  1  0
 13 42  1  0
 13 43  1  0
 14 44  1  0
 14 45  1  0
 15 46  1  0
 15 47  1  0
 16 48  1  0
 16 49  1  0
 17 50  1  0
 17 51  1  0
M  CHG  1  20  -1
M  END
>  <meeko>  (9) 
{"is_sidechain": [false], "free_energy": -5.229, "intermolecular_energy": -9.767, "internal_energy": -1.627}

$$$$
linoleate_run03
     RDKit          3D

 51 50  0  0  0  0  0  0  0  0999 V2000
   46.0700   32.2590   27.7740 C   0  0  0  0  0  0  0  0  0  0  0  0
   46.3510   33.5990   27.1130 C   0  0  0  0  0  0  0  0  0  0  0  0
   46.1160   33.5960   25.6010 C   0  0  0  0  0  0  0  0  0  0  0  0
   46.4370   34.9370   24.9350 C   0  0  0  0  0  0  0  0  0  0  0  0
   47.5100   35.7010   25.7200 C   0  0  0  0  0  0  0  0  0  0  0  0
   47.2470   37.1590   25.9870 C   0  0  0  0  0  0  0  0  0  0  0  0
   47.6690   37.8850   27.0340 C   0  0  0  0  0  0  0  0  0  0  0  0
   48.5050   37.3240   28.1490 C   0  0  0  0  0  0  0  0  0  0  0  0
   47.6550   36.8500   29.2900 C   0  0  0  0  0  0  0  0  0  0  0  0
   47.7790   35.6430   29.8610 C   0  0  0  0  0  0  0  0  0  0  0  0
   48.7870   34.6160   29.4290 C   0  0  0  0  0  0  0  0  0  0  0  0
   48.7690   33.3520   30.2960 C   0  0  0  0  0  0  0  0  0  0  0  0
   47.4230   33.1130   30.9900 C   0  0  0  0  0  0  0  0  0  0  0  0
   47.3150   31.7300   31.6410 C   0  0  0  0  0  0  0  0  0  0  0  0
   45.9590   31.0560   31.4120 C   0  0  0  0  0  0  0  0  0  0  0  0
   44.9180   31.5480   32.4240 C   0  0  0  0  0  0  0  0  0  0  0  0
   45.5350   31.8710   33.7850 C   0  0  0  0  0  0  0  0  0  0  0  0
   45.4220   33.3290   34.1570 C   0  0  0  0  0  0  0  0  0  0  0  0
   45.8710   33.8520   35.1650 O   0  0  0  0  0  0  0  0  0  0  0  0
   44.7650   34.0100   33.1830 O   0  0  0  0  0  0  0  0  0  0  0  0
   46.0948   32.3771   28.8674 H   0  0  0  0  0  0  0  0  0  0  0  0
   45.0769   31.8995   27.4664 H   0  0  0  0  0  0  0  0  0  0  0  0
   46.8350   31.5308   27.4664 H   0  0  0  0  0  0  0  0  0  0  0  0
   45.6930   34.3552   27.5659 H   0  0  0  0  0  0  0  0  0  0  0  0
   47.4161   33.8217   27.2740 H   0  0  0  0  0  0  0  0  0  0  0  0
   46.7533   32.8210   25.1502 H   0  0  0  0  0  0  0  0  0  0  0  0
   45.0460   33.3995   25.4382 H   0  0  0  0  0  0  0  0  0  0  0  0
   46.8021   34.7526   23.9139 H   0  0  0  0  0  0  0  0  0  0  0  0
   45.5204   35.5448   24.9143 H   0  0  0  0  0  0  0  0  0  0  0  0
   47.6300   35.2010   26.6924 H   0  0  0  0  0  0  0  0  0  0  0  0
   48.4035   35.6826   25.0786 H   0  0  0  0  0  0  0  0  0  0  0  0
   46.6399   37.6897   25.2389 H   0  0  0  0  0  0  0  0  0  0  0  0
   47.3877   38.9475   27.0780 H   0  0  0  0  0  0  0  0  0  0  0  0
   49.0913   36.4766   27.7643 H   0  0  0  0  0  0  0  0  0  0  0  0
   49.1654   38.1218   28.5195 H   0  0  0  0  0  0  0  0  0  0  0  0
   46.8854   37.5317   29.6811 H   0  0  0  0  0  0  0  0  0  0  0  0
   47.1047   35.3906   30.6926 H   0  0  0  0  0  0  0  0  0  0  0  0
   48.5713   34.3300   28.3890 H   0  0  0  0  0  0  0  0  0  0  0  0
   49.7831   35.0707   29.5337 H   0  0  0  0  0  0  0  0  0  0  0  0
   48.9904   32.4857   29.6553 H   0  0  0  0  0  0  0  0  0  0  0  0
   49.5235   33.4868   31.0850 H   0  0  0  0  0  0  0  0  0  0  0  0
   47.2915   33.8775   31.7699 H   0  0  0  0  0  0  0  0  0  0  0  0
   46.6425   33.1716   30.2171 H   0  0  0  0  0  0  0  0  0  0  0  0
   48.1008   31.0845   31.2216 H   0  0  0  0  0  0  0  0  0  0  0  0
   47.4292   31.8712   32.7259 H   0  0  0  0  0  0  0  0  0  0  0  0
   45.6094   31.2892   30.3954 H   0  0  0  0  0  0  0  0  0  0  0  0
   46.0833   29.9705   31.5397 H   0  0  0  0  0  0  0  0  0  0  0  0
   44.4419   32.4569   32.0274 H   0  0  0  0  0  0  0  0  0  0  0  0
   44.1857   30.7405   32.5711 H   0  0  0  0  0  0  0  0  0  0  0  0
   45.0215   31.2734   34.5525 H   0  0  0  0  0  0  0  0  0  0  0  0
   46.6068   31.6310   33.7237 H   0  0  0  0  0  0  0  0  0  0  0  0
  1  2  1  0
  2  3  1  0
  3  4  1  0
  4  5  1  0
  5  6  1  0
  6  7  2  0
  7  8  1  0
  8  9  1  0
  9 10  2  0
 10 11  1  0
 11 12  1  0
 12 13  1  0
 13 14  1  0
 14 15  1  0
 15 16  1  0
 16 17  1  0
 17 18  1  0
 18 19  2  0
 18 20  1  0
  1 21  1  0
  1 22  1  0
  1 23  1  0
  2 24  1  0
  2 25  1  0
  3 26  1  0
  3 27  1  0
  4 28  1  0
  4 29  1  0
  5 30  1  0
  5 31  1  0
  6 32  1  0
  7 33  1  0
  8 34  1  0
  8 35  1  0
  9 36  1  0
 10 37  1  0
 11 38  1  0
 11 39  1  0
 12 40  1  0
 12 41  1  0
 13 42  1  0
 13 43  1  0
 14 44  1  0
 14 45  1  0
 15 46  1  0
 15 47  1  0
 16 48  1  0
 16 49  1  0
 17 50  1  0
 17 51  1  0
M  CHG  1  20  -1
M  END
>  <meeko>  (10) 
{"is_sidechain": [false], "free_energy": -5.194, "intermolecular_energy": -9.434, "internal_energy": -1.895}

$$$$
linoleate_run03
     RDKit          3D

 51 50  0  0  0  0  0  0  0  0999 V2000
   46.1850   33.2020   27.4430 C   0  0  0  0  0  0  0  0  0  0  0  0
   46.7960   33.4380   26.0700 C   0  0  0  0  0  0  0  0  0  0  0  0
   46.3870   34.7710   25.4400 C   0  0  0  0  0  0  0  0  0  0  0  0
   47.4560   35.8600   25.5760 C   0  0  0  0  0  0  0  0  0  0  0  0
   46.9410   37.0390   26.4100 C   0  0  0  0  0  0  0  0  0  0  0  0
   47.9690   37.8340   27.1690 C   0  0  0  0  0  0  0  0  0  0  0  0
   48.3630   37.6540   28.4400 C   0  0  0  0  0  0  0  0  0  0  0  0
   47.8080   36.5850   29.3370 C   0  0  0  0  0  0  0  0  0  0  0  0
   48.7250   35.3990   29.4120 C   0  0  0  0  0  0  0  0  0  0  0  0
   49.3240   34.9910   30.5410 C   0  0  0  0  0  0  0  0  0  0  0  0
   49.1490   35.6700   31.8700 C   0  0  0  0  0  0  0  0  0  0  0  0
   48.2760   34.8700   32.8430 C   0  0  0  0  0  0  0  0  0  0  0  0
   49.0860   33.9920   33.8030 C   0  0  0  0  0  0  0  0  0  0  0  0
   49.1230   32.5170   33.3900 C   0  0  0  0  0  0  0  0  0  0  0  0
   47.7860   32.0040   32.8510 C   0  0  0  0  0  0  0  0  0  0  0  0
   46.8970   31.4780   33.9850 C   0  0  0  0  0  0  0  0  0  0  0  0
   45.4460   31.9350   33.8480 C   0  0  0  0  0  0  0  0  0  0  0  0
   45.2790   33.4290   33.9870 C   0  0  0  0  0  0  0  0  0  0  0  0
   44.6950   34.1640   33.2050 O   0  0  0  0  0  0  0  0  0  0  0  0
   45.8510   33.8580   35.1400 O   0  0  0  0  0  0  0  0  0  0  0  0
   46.9109   33.4824   28.2205 H   0  0  0  0  0  0  0  0  0  0  0  0
   45.2775   33.8143   27.5507 H   0  0  0  0  0  0  0  0  0  0  0  0
   45.9248   32.1387   27.5507 H   0  0  0  0  0  0  0  0  0  0  0  0
   47.8914   33.4214   26.1690 H   0  0  0  0  0  0  0  0  0  0  0  0
   46.4243   32.6408   25.4095 H   0  0  0  0  0  0  0  0  0  0  0  0
   46.1912   34.6059   24.3702 H   0  0  0  0  0  0  0  0  0  0  0  0
   45.4934   35.1235   25.9759 H   0  0  0  0  0  0  0  0  0  0  0  0
   48.3430   35.4332   26.0669 H   0  0  0  0  0  0  0  0  0  0  0  0
   47.7094   36.2278   24.5708 H   0  0  0  0  0  0  0  0  0  0  0  0
   46.4245   37.7293   25.7269 H   0  0  0  0  0  0  0  0  0  0  0  0
   46.2997   36.5874   27.1812 H   0  0  0  0  0  0  0  0  0  0  0  0
   48.4525   38.6557   26.6203 H   0  0  0  0  0  0  0  0  0  0  0  0
   49.1337   38.3257   28.8460 H   0  0  0  0  0  0  0  0  0  0  0  0
   47.6760   36.9992   30.3474 H   0  0  0  0  0  0  0  0  0  0  0  0
   46.8456   36.2514   28.9218 H   0  0  0  0  0  0  0  0  0  0  0  0
   48.9167   34.8323   28.4889 H   0  0  0  0  0  0  0  0  0  0  0  0
   49.9803   34.1097   30.4910 H   0  0  0  0  0  0  0  0  0  0  0  0
   50.1408   35.8112   32.3244 H   0  0  0  0  0  0  0  0  0  0  0  0
   48.6409   36.6279   31.6848 H   0  0  0  0  0  0  0  0  0  0  0  0
   47.6775   35.5765   33.4368 H   0  0  0  0  0  0  0  0  0  0  0  0
   47.6471   34.1987   32.2398 H   0  0  0  0  0  0  0  0  0  0  0  0
   50.1180   34.3712   33.8365 H   0  0  0  0  0  0  0  0  0  0  0  0
   48.5937   34.0431   34.7853 H   0  0  0  0  0  0  0  0  0  0  0  0
   49.8855   32.3930   32.6069 H   0  0  0  0  0  0  0  0  0  0  0  0
   49.3555   31.9325   34.2924 H   0  0  0  0  0  0  0  0  0  0  0  0
   47.2657   32.8270   32.3393 H   0  0  0  0  0  0  0  0  0  0  0  0
   47.9854   31.1780   32.1524 H   0  0  0  0  0  0  0  0  0  0  0  0
   46.9235   30.3784   33.9734 H   0  0  0  0  0  0  0  0  0  0  0  0
   47.2873   31.8810   34.9312 H   0  0  0  0  0  0  0  0  0  0  0  0
   45.0758   31.6322   32.8574 H   0  0  0  0  0  0  0  0  0  0  0  0
   44.8761   31.4645   34.6627 H   0  0  0  0  0  0  0  0  0  0  0  0
  1  2  1  0
  2  3  1  0
  3  4  1  0
  4  5  1  0
  5  6  1  0
  6  7  2  0
  7  8  1  0
  8  9  1  0
  9 10  2  0
 10 11  1  0
 11 12  1  0
 12 13  1  0
 13 14  1  0
 14 15  1  0
 15 16  1  0
 16 17  1  0
 17 18  1  0
 18 19  2  0
 18 20  1  0
  1 21  1  0
  1 22  1  0
  1 23  1  0
  2 24  1  0
  2 25  1  0
  3 26  1  0
  3 27  1  0
  4 28  1  0
  4 29  1  0
  5 30  1  0
  5 31  1  0
  6 32  1  0
  7 33  1  0
  8 34  1  0
  8 35  1  0
  9 36  1  0
 10 37  1  0
 11 38  1  0
 11 39  1  0
 12 40  1  0
 12 41  1  0
 13 42  1  0
 13 43  1  0
 14 44  1  0
 14 45  1  0
 15 46  1  0
 15 47  1  0
 16 48  1  0
 16 49  1  0
 17 50  1  0
 17 51  1  0
M  CHG  1  20  -1
M  END
>  <meeko>  (11) 
{"is_sidechain": [false], "free_energy": -5.136, "intermolecular_energy": -9.523, "internal_energy": -1.701}

$$$$
linoleate_run03
     RDKit          3D

 51 50  0  0  0  0  0  0  0  0999 V2000
   47.2900   37.0240   29.7890 C   0  0  0  0  0  0  0  0  0  0  0  0
   48.2980   37.0010   28.6510 C   0  0  0  0  0  0  0  0  0  0  0  0
   48.1910   38.2070   27.7150 C   0  0  0  0  0  0  0  0  0  0  0  0
   47.8300   37.8290   26.2760 C   0  0  0  0  0  0  0  0  0  0  0  0
   47.7720   36.3060   26.1030 C   0  0  0  0  0  0  0  0  0  0  0  0
   46.6190   35.7570   25.3060 C   0  0  0  0  0  0  0  0  0  0  0  0
   46.4240   34.4840   24.9260 C   0  0  0  0  0  0  0  0  0  0  0  0
   47.3730   33.3670   25.2520 C   0  0  0  0  0  0  0  0  0  0  0  0
   46.6950   32.2800   26.0330 C   0  0  0  0  0  0  0  0  0  0  0  0
   46.6410   32.2490   27.3730 C   0  0  0  0  0  0  0  0  0  0  0  0
   47.2500   33.2990   28.2580 C   0  0  0  0  0  0  0  0  0  0  0  0
   48.7310   33.0450   28.5610 C   0  0  0  0  0  0  0  0  0  0  0  0
   49.2240   33.7650   29.8210 C   0  0  0  0  0  0  0  0  0  0  0  0
   49.4820   32.8180   30.9980 C   0  0  0  0  0  0  0  0  0  0  0  0
   48.8820   33.3130   32.3170 C   0  0  0  0  0  0  0  0  0  0  0  0
   47.5410   34.0190   32.0840 C   0  0  0  0  0  0  0  0  0  0  0  0
   46.8960   34.4900   33.3870 C   0  0  0  0  0  0  0  0  0  0  0  0
   45.5280   33.8950   33.6210 C   0  0  0  0  0  0  0  0  0  0  0  0
   44.8990   33.2050   32.8340 O   0  0  0  0  0  0  0  0  0  0  0  0
   45.0890   34.2110   34.8660 O   0  0  0  0  0  0  0  0  0  0  0  0
   47.8230   37.0118   30.7512 H   0  0  0  0  0  0  0  0  0  0  0  0
   46.6794   37.9363   29.7196 H   0  0  0  0  0  0  0  0  0  0  0  0
   46.6384   36.1405   29.7196 H   0  0  0  0  0  0  0  0  0  0  0  0
   49.3097   36.9841   29.0825 H   0  0  0  0  0  0  0  0  0  0  0  0
   48.0855   36.1051   28.0492 H   0  0  0  0  0  0  0  0  0  0  0  0
   47.4144   38.8822   28.1035 H   0  0  0  0  0  0  0  0  0  0  0  0
   49.1812   38.6853   27.6867 H   0  0  0  0  0  0  0  0  0  0  0  0
   46.8472   38.2564   26.0281 H   0  0  0  0  0  0  0  0  0  0  0  0
   48.6053   38.2275   25.6051 H   0  0  0  0  0  0  0  0  0  0  0  0
   48.7008   35.9921   25.6042 H   0  0  0  0  0  0  0  0  0  0  0  0
   47.6364   35.9058   27.1186 H   0  0  0  0  0  0  0  0  0  0  0  0
   45.8490   36.4806   25.0003 H   0  0  0  0  0  0  0  0  0  0  0  0
   45.5207   34.2468   24.3448 H   0  0  0  0  0  0  0  0  0  0  0  0
   47.7625   32.9438   24.3144 H   0  0  0  0  0  0  0  0  0  0  0  0
   48.1892   33.7756   25.8660 H   0  0  0  0  0  0  0  0  0  0  0  0
   46.2151   31.4623   25.4753 H   0  0  0  0  0  0  0  0  0  0  0  0
   46.1208   31.4061   27.8514 H   0  0  0  0  0  0  0  0  0  0  0  0
   47.1572   34.2747   27.7585 H   0  0  0  0  0  0  0  0  0  0  0  0
   46.7102   33.2738   29.2161 H   0  0  0  0  0  0  0  0  0  0  0  0
   48.8792   31.9635   28.6963 H   0  0  0  0  0  0  0  0  0  0  0  0
   49.3095   33.4397   27.7127 H   0  0  0  0  0  0  0  0  0  0  0  0
   50.1620   34.2869   29.5806 H   0  0  0  0  0  0  0  0  0  0  0  0
   48.4303   34.4609   30.1304 H   0  0  0  0  0  0  0  0  0  0  0  0
   49.0423   31.8381   30.7605 H   0  0  0  0  0  0  0  0  0  0  0  0
   50.5717   32.7608   31.1371 H   0  0  0  0  0  0  0  0  0  0  0  0
   48.7239   32.4532   32.9846 H   0  0  0  0  0  0  0  0  0  0  0  0
   49.5806   34.0317   32.7702 H   0  0  0  0  0  0  0  0  0  0  0  0
   47.7095   34.8927   31.4373 H   0  0  0  0  0  0  0  0  0  0  0  0
   46.8584   33.2955   31.6144 H   0  0  0  0  0  0  0  0  0  0  0  0
   47.5497   34.2042   34.2243 H   0  0  0  0  0  0  0  0  0  0  0  0
   46.7709   35.5805   33.3150 H   0  0  0  0  0  0  0  0  0  0  0  0
  1  2  1  0
  2  3  1  0
  3  4  1  0
  4  5  1  0
  5  6  1  0
  6  7  2  0
  7  8  1  0
  8  9  1  0
  9 10  2  0
 10 11  1  0
 11 12  1  0
 12 13  1  0
 13 14  1  0
 14 15  1  0
 15 16  1  0
 16 17  1  0
 17 18  1  0
 18 19  2  0
 18 20  1  0
  1 21  1  0
  1 22  1  0
  1 23  1  0
  2 24  1  0
  2 25  1  0
  3 26  1  0
  3 27  1  0
  4 28  1  0
  4 29  1  0
  5 30  1  0
  5 31  1  0
  6 32  1  0
  7 33  1  0
  8 34  1  0
  8 35  1  0
  9 36  1  0
 10 37  1  0
 11 38  1  0
 11 39  1  0
 12 40  1  0
 12 41  1  0
 13 42  1  0
 13 43  1  0
 14 44  1  0
 14 45  1  0
 15 46  1  0
 15 47  1  0
 16 48  1  0
 16 49  1  0
 17 50  1  0
 17 51  1  0
M  CHG  1  20  -1
M  END
>  <meeko>  (12) 
{"is_sidechain": [false], "free_energy": -5.135, "intermolecular_energy": -9.286, "internal_energy": -1.936}

$$$$
linoleate_run03
     RDKit          3D

 51 50  0  0  0  0  0  0  0  0999 V2000
   45.7070   32.1640   28.1510 C   0  0  0  0  0  0  0  0  0  0  0  0
   45.9350   30.6650   28.2740 C   0  0  0  0  0  0  0  0  0  0  0  0
   45.9760   29.9410   26.9260 C   0  0  0  0  0  0  0  0  0  0  0  0
   46.5890   30.7830   25.8040 C   0  0  0  0  0  0  0  0  0  0  0  0
   48.1200   30.7850   25.8870 C   0  0  0  0  0  0  0  0  0  0  0  0
   48.8510   31.6770   24.9210 C   0  0  0  0  0  0  0  0  0  0  0  0
   48.9850   33.0110   24.9850 C   0  0  0  0  0  0  0  0  0  0  0  0
   48.3950   33.8520   26.0810 C   0  0  0  0  0  0  0  0  0  0  0  0
   47.1230   34.5150   25.6420 C   0  0  0  0  0  0  0  0  0  0  0  0
   46.9720   35.8450   25.5420 C   0  0  0  0  0  0  0  0  0  0  0  0
   48.0590   36.8330   25.8560 C   0  0  0  0  0  0  0  0  0  0  0  0
   47.6030   37.9480   26.8040 C   0  0  0  0  0  0  0  0  0  0  0  0
   48.2750   37.8860   28.1800 C   0  0  0  0  0  0  0  0  0  0  0  0
   47.6590   36.8330   29.1080 C   0  0  0  0  0  0  0  0  0  0  0  0
   48.7010   35.9400   29.7870 C   0  0  0  0  0  0  0  0  0  0  0  0
   48.0600   35.0750   30.8790 C   0  0  0  0  0  0  0  0  0  0  0  0
   48.1720   35.7070   32.2660 C   0  0  0  0  0  0  0  0  0  0  0  0
   46.8600   36.2480   32.7800 C   0  0  0  0  0  0  0  0  0  0  0  0
   45.7720   35.6980   32.6960 O   0  0  0  0  0  0  0  0  0  0  0  0
   47.0550   37.4440   33.3910 O   0  0  0  0  0  0  0  0  0  0  0  0
   45.6394   32.6082   29.1550 H   0  0  0  0  0  0  0  0  0  0  0  0
   46.5463   32.6189   27.6045 H   0  0  0  0  0  0  0  0  0  0  0  0
   44.7704   32.3488   27.6045 H   0  0  0  0  0  0  0  0  0  0  0  0
   46.8937   30.4996   28.7873 H   0  0  0  0  0  0  0  0  0  0  0  0
   45.0841   30.2534   28.8366 H   0  0  0  0  0  0  0  0  0  0  0  0
   46.5729   29.0242   27.0403 H   0  0  0  0  0  0  0  0  0  0  0  0
   44.9358   29.7259   26.6403 H   0  0  0  0  0  0  0  0  0  0  0  0
   46.2826   30.3656   24.8335 H   0  0  0  0  0  0  0  0  0  0  0  0
   46.2326   31.8182   25.9102 H   0  0  0  0  0  0  0  0  0  0  0  0
   48.3976   31.0981   26.9043 H   0  0  0  0  0  0  0  0  0  0  0  0
   48.4238   29.7620   25.6202 H   0  0  0  0  0  0  0  0  0  0  0  0
   49.3301   31.1794   24.0649 H   0  0  0  0  0  0  0  0  0  0  0  0
   49.5574   33.5154   24.1926 H   0  0  0  0  0  0  0  0  0  0  0  0
   48.1824   33.2102   26.9487 H   0  0  0  0  0  0  0  0  0  0  0  0
   49.1205   34.6366   26.3421 H   0  0  0  0  0  0  0  0  0  0  0  0
   46.2653   33.8749   25.3876 H   0  0  0  0  0  0  0  0  0  0  0  0
   45.9973   36.2333   25.2115 H   0  0  0  0  0  0  0  0  0  0  0  0
   48.8960   36.2952   26.3252 H   0  0  0  0  0  0  0  0  0  0  0  0
   48.3538   37.3082   24.9088 H   0  0  0  0  0  0  0  0  0  0  0  0
   47.8410   38.9177   26.3425 H   0  0  0  0  0  0  0  0  0  0  0  0
   46.5222   37.8189   26.9630 H   0  0  0  0  0  0  0  0  0  0  0  0
   49.3393   37.6470   28.0384 H   0  0  0  0  0  0  0  0  0  0  0  0
   48.1306   38.8662   28.6578 H   0  0  0  0  0  0  0  0  0  0  0  0
   47.0811   37.3503   29.8880 H   0  0  0  0  0  0  0  0  0  0  0  0
   47.0267   36.1815   28.4870 H   0  0  0  0  0  0  0  0  0  0  0  0
   49.1588   35.2841   29.0318 H   0  0  0  0  0  0  0  0  0  0  0  0
   49.4619   36.5834   30.2529 H   0  0  0  0  0  0  0  0  0  0  0  0
   46.9955   34.9358   30.6395 H   0  0  0  0  0  0  0  0  0  0  0  0
   48.5972   34.1154   30.9041 H   0  0  0  0  0  0  0  0  0  0  0  0
   48.5353   34.9437   32.9698 H   0  0  0  0  0  0  0  0  0  0  0  0
   48.8662   36.5563   32.1834 H   0  0  0  0  0  0  0  0  0  0  0  0
  1  2  1  0
  2  3  1  0
  3  4  1  0
  4  5  1  0
  5  6  1  0
  6  7  2  0
  7  8  1  0
  8  9  1  0
  9 10  2  0
 10 11  1  0
 11 12  1  0
 12 13  1  0
 13 14  1  0
 14 15  1  0
 15 16  1  0
 16 17  1  0
 17 18  1  0
 18 19  2  0
 18 20  1  0
  1 21  1  0
  1 22  1  0
  1 23  1  0
  2 24  1  0
  2 25  1  0
  3 26  1  0
  3 27  1  0
  4 28  1  0
  4 29  1  0
  5 30  1  0
  5 31  1  0
  6 32  1  0
  7 33  1  0
  8 34  1  0
  8 35  1  0
  9 36  1  0
 10 37  1  0
 11 38  1  0
 11 39  1  0
 12 40  1  0
 12 41  1  0
 13 42  1  0
 13 43  1  0
 14 44  1  0
 14 45  1  0
 15 46  1  0
 15 47  1  0
 16 48  1  0
 16 49  1  0
 17 50  1  0
 17 51  1  0
M  CHG  1  20  -1
M  END
>  <meeko>  (13) 
{"is_sidechain": [false], "free_energy": -5.13, "intermolecular_energy": -9.585, "internal_energy": -1.627}

$$$$
linoleate_run03
     RDKit          3D

 51 50  0  0  0  0  0  0  0  0999 V2000
   49.2140   33.7130   29.5660 C   0  0  0  0  0  0  0  0  0  0  0  0
   47.9070   34.4170   29.8940 C   0  0  0  0  0  0  0  0  0  0  0  0
   48.0870   35.8760   30.3190 C   0  0  0  0  0  0  0  0  0  0  0  0
   47.4550   36.8740   29.3450 C   0  0  0  0  0  0  0  0  0  0  0  0
   48.5140   37.4960   28.4260 C   0  0  0  0  0  0  0  0  0  0  0  0
   48.0210   38.1230   27.1500 C   0  0  0  0  0  0  0  0  0  0  0  0
   47.7310   37.5010   25.9960 C   0  0  0  0  0  0  0  0  0  0  0  0
   47.8630   36.0180   25.7970 C   0  0  0  0  0  0  0  0  0  0  0  0
   46.6280   35.4340   25.1770 C   0  0  0  0  0  0  0  0  0  0  0  0
   46.0580   34.2910   25.5860 C   0  0  0  0  0  0  0  0  0  0  0  0
   46.5850   33.4550   26.7180 C   0  0  0  0  0  0  0  0  0  0  0  0
   46.9070   32.0150   26.3030 C   0  0  0  0  0  0  0  0  0  0  0  0
   48.4100   31.7190   26.2560 C   0  0  0  0  0  0  0  0  0  0  0  0
   49.0990   32.2810   25.0070 C   0  0  0  0  0  0  0  0  0  0  0  0
   50.3520   33.1010   25.3240 C   0  0  0  0  0  0  0  0  0  0  0  0
   51.4480   32.2210   25.9370 C   0  0  0  0  0  0  0  0  0  0  0  0
   52.7120   32.1800   25.0790 C   0  0  0  0  0  0  0  0  0  0  0  0
   53.9440   32.6490   25.8140 C   0  0  0  0  0  0  0  0  0  0  0  0
   54.1250   33.7640   26.2770 O   0  0  0  0  0  0  0  0  0  0  0  0
   54.8380   31.6330   25.9240 O   0  0  0  0  0  0  0  0  0  0  0  0
   49.7262   33.4371   30.4996 H   0  0  0  0  0  0  0  0  0  0  0  0
   49.0048   32.8055   28.9806 H   0  0  0  0  0  0  0  0  0  0  0  0
   49.8566   34.3870   28.9806 H   0  0  0  0  0  0  0  0  0  0  0  0
   47.2647   34.3915   29.0013 H   0  0  0  0  0  0  0  0  0  0  0  0
   47.4594   33.8855   30.7467 H   0  0  0  0  0  0  0  0  0  0  0  0
   47.6231   36.0114   31.3072 H   0  0  0  0  0  0  0  0  0  0  0  0
   49.1680   36.0787   30.3367 H   0  0  0  0  0  0  0  0  0  0  0  0
   46.7079   36.3513   28.7297 H   0  0  0  0  0  0  0  0  0  0  0  0
   46.9823   37.6786   29.9274 H   0  0  0  0  0  0  0  0  0  0  0  0
   49.0361   38.2758   28.9999 H   0  0  0  0  0  0  0  0  0  0  0  0
   49.1482   36.6556   28.1075 H   0  0  0  0  0  0  0  0  0  0  0  0
   47.8826   39.2142   27.1643 H   0  0  0  0  0  0  0  0  0  0  0  0
   47.3778   38.1101   25.1509 H   0  0  0  0  0  0  0  0  0  0  0  0
   48.7213   35.8209   25.1378 H   0  0  0  0  0  0  0  0  0  0  0  0
   48.0094   35.5495   26.7814 H   0  0  0  0  0  0  0  0  0  0  0  0
   46.1634   35.9742   24.3390 H   0  0  0  0  0  0  0  0  0  0  0  0
   45.1537   33.9460   25.0633 H   0  0  0  0  0  0  0  0  0  0  0  0
   47.5041   33.9230   27.1004 H   0  0  0  0  0  0  0  0  0  0  0  0
   45.7975   33.4071   27.4845 H   0  0  0  0  0  0  0  0  0  0  0  0
   46.4388   31.3305   27.0257 H   0  0  0  0  0  0  0  0  0  0  0  0
   46.5154   31.8742   25.2848 H   0  0  0  0  0  0  0  0  0  0  0  0
   48.8815   32.1634   27.1449 H   0  0  0  0  0  0  0  0  0  0  0  0
   48.5264   30.6255   26.2287 H   0  0  0  0  0  0  0  0  0  0  0  0
   49.3868   31.4401   24.3588 H   0  0  0  0  0  0  0  0  0  0  0  0
   48.3830   32.9566   24.5161 H   0  0  0  0  0  0  0  0  0  0  0  0
   50.7310   33.5515   24.3948 H   0  0  0  0  0  0  0  0  0  0  0  0
   50.0837   33.8816   26.0511 H   0  0  0  0  0  0  0  0  0  0  0  0
   51.7074   32.6198   26.9288 H   0  0  0  0  0  0  0  0  0  0  0  0
   51.0555   31.1956   26.0041 H   0  0  0  0  0  0  0  0  0  0  0  0
   52.8759   31.1442   24.7470 H   0  0  0  0  0  0  0  0  0  0  0  0
   52.5553   32.8649   24.2326 H   0  0  0  0  0  0  0  0  0  0  0  0
  1  2  1  0
  2  3  1  0
  3  4  1  0
  4  5  1  0
  5  6  1  0
  6  7  2  0
  7  8  1  0
  8  9  1  0
  9 10  2  0
 10 11  1  0
 11 12  1  0
 12 13  1  0
 13 14  1  0
 14 15  1  0
 15 16  1  0
 16 17  1  0
 17 18  1  0
 18 19  2  0
 18 20  1  0
  1 21  1  0
  1 22  1  0
  1 23  1  0
  2 24  1  0
  2 25  1  0
  3 26  1  0
  3 27  1  0
  4 28  1  0
  4 29  1  0
  5 30  1  0
  5 31  1  0
  6 32  1  0
  7 33  1  0
  8 34  1  0
  8 35  1  0
  9 36  1  0
 10 37  1  0
 11 38  1  0
 11 39  1  0
 12 40  1  0
 12 41  1  0
 13 42  1  0
 13 43  1  0
 14 44  1  0
 14 45  1  0
 15 46  1  0
 15 47  1  0
 16 48  1  0
 16 49  1  0
 17 50  1  0
 17 51  1  0
M  CHG  1  20  -1
M  END
>  <meeko>  (14) 
{"is_sidechain": [false], "free_energy": -5.127, "intermolecular_energy": -9.207, "internal_energy": -2.001}

$$$$
linoleate_run03
     RDKit          3D

 51 50  0  0  0  0  0  0  0  0999 V2000
   46.2610   30.1360   26.0250 C   0  0  0  0  0  0  0  0  0  0  0  0
   47.6460   30.6230   26.4210 C   0  0  0  0  0  0  0  0  0  0  0  0
   47.6290   31.9220   27.2300 C   0  0  0  0  0  0  0  0  0  0  0  0
   46.2600   32.6070   27.2490 C   0  0  0  0  0  0  0  0  0  0  0  0
   46.1840   33.7190   26.1960 C   0  0  0  0  0  0  0  0  0  0  0  0
   47.4920   34.2570   25.6820 C   0  0  0  0  0  0  0  0  0  0  0  0
   47.8750   35.5420   25.6160 C   0  0  0  0  0  0  0  0  0  0  0  0
   47.0140   36.6880   26.0640 C   0  0  0  0  0  0  0  0  0  0  0  0
   47.8410   37.8670   26.4850 C   0  0  0  0  0  0  0  0  0  0  0  0
   48.1580   38.1380   27.7600 C   0  0  0  0  0  0  0  0  0  0  0  0
   47.7240   37.2930   28.9250 C   0  0  0  0  0  0  0  0  0  0  0  0
   48.8210   36.3450   29.4220 C   0  0  0  0  0  0  0  0  0  0  0  0
   48.4740   34.8640   29.2310 C   0  0  0  0  0  0  0  0  0  0  0  0
   47.8850   34.2130   30.4870 C   0  0  0  0  0  0  0  0  0  0  0  0
   48.8740   34.1380   31.6520 C   0  0  0  0  0  0  0  0  0  0  0  0
   48.4390   35.0480   32.8070 C   0  0  0  0  0  0  0  0  0  0  0  0
   46.9200   35.1970   32.8910 C   0  0  0  0  0  0  0  0  0  0  0  0
   46.4560   36.6280   32.7640 C   0  0  0  0  0  0  0  0  0  0  0  0
   45.4510   37.0100   32.1850 O   0  0  0  0  0  0  0  0  0  0  0  0
   47.3090   37.4560   33.4200 O   0  0  0  0  0  0  0  0  0  0  0  0
   45.6722   29.9290   26.9308 H   0  0  0  0  0  0  0  0  0  0  0  0
   45.7565   30.9107   25.4289 H   0  0  0  0  0  0  0  0  0  0  0  0
   46.3524   29.2161   25.4289 H   0  0  0  0  0  0  0  0  0  0  0  0
   48.1295   29.8422   27.0265 H   0  0  0  0  0  0  0  0  0  0  0  0
   48.1945   30.8291   25.4901 H   0  0  0  0  0  0  0  0  0  0  0  0
   47.9183   31.6917   28.2660 H   0  0  0  0  0  0  0  0  0  0  0  0
   48.3330   32.6154   26.7468 H   0  0  0  0  0  0  0  0  0  0  0  0
   45.4812   31.8592   27.0385 H   0  0  0  0  0  0  0  0  0  0  0  0
   46.1076   33.0553   28.2419 H   0  0  0  0  0  0  0  0  0  0  0  0
   45.6251   33.3242   25.3348 H   0  0  0  0  0  0  0  0  0  0  0  0
   45.7047   34.5671   26.7069 H   0  0  0  0  0  0  0  0  0  0  0  0
   48.2165   33.5130   25.3192 H   0  0  0  0  0  0  0  0  0  0  0  0
   48.8730   35.7676   25.2121 H   0  0  0  0  0  0  0  0  0  0  0  0
   46.3595   36.9893   25.2328 H   0  0  0  0  0  0  0  0  0  0  0  0
   46.4215   36.3561   26.9293 H   0  0  0  0  0  0  0  0  0  0  0  0
   48.2084   38.5482   25.7034 H   0  0  0  0  0  0  0  0  0  0  0  0
   48.7701   39.0288   27.9645 H   0  0  0  0  0  0  0  0  0  0  0  0
   47.4354   37.9585   29.7519 H   0  0  0  0  0  0  0  0  0  0  0  0
   46.8831   36.6713   28.5839 H   0  0  0  0  0  0  0  0  0  0  0  0
   49.7466   36.5611   28.8683 H   0  0  0  0  0  0  0  0  0  0  0  0
   48.9352   36.5164   30.5025 H   0  0  0  0  0  0  0  0  0  0  0  0
   47.7393   34.7797   28.4167 H   0  0  0  0  0  0  0  0  0  0  0  0
   49.4113   34.3368   28.9996 H   0  0  0  0  0  0  0  0  0  0  0  0
   47.0120   34.8004   30.8077 H   0  0  0  0  0  0  0  0  0  0  0  0
   47.6157   33.1799   30.2220 H   0  0  0  0  0  0  0  0  0  0  0  0
   48.9258   33.1001   32.0127 H   0  0  0  0  0  0  0  0  0  0  0  0
   49.8589   34.4738   31.2954 H   0  0  0  0  0  0  0  0  0  0  0  0
   48.8047   34.6191   33.7516 H   0  0  0  0  0  0  0  0  0  0  0  0
   48.8645   36.0461   32.6262 H   0  0  0  0  0  0  0  0  0  0  0  0
   46.4654   34.6086   32.0804 H   0  0  0  0  0  0  0  0  0  0  0  0
   46.6104   34.8393   33.8841 H   0  0  0  0  0  0  0  0  0  0  0  0
  1  2  1  0
  2  3  1  0
  3  4  1  0
  4  5  1  0
  5  6  1  0
  6  7  2  0
  7  8  1  0
  8  9  1  0
  9 10  2  0
 10 11  1  0
 11 12  1  0
 12 13  1  0
 13 14  1  0
 14 15  1  0
 15 16  1  0
 16 17  1  0
 17 18  1  0
 18 19  2  0
 18 20  1  0
  1 21  1  0
  1 22  1  0
  1 23  1  0
  2 24  1  0
  2 25  1  0
  3 26  1  0
  3 27  1  0
  4 28  1  0
  4 29  1  0
  5 30  1  0
  5 31  1  0
  6 32  1  0
  7 33  1  0
  8 34  1  0
  8 35  1  0
  9 36  1  0
 10 37  1  0
 11 38  1  0
 11 39  1  0
 12 40  1  0
 12 41  1  0
 13 42  1  0
 13 43  1  0
 14 44  1  0
 14 45  1  0
 15 46  1  0
 15 47  1  0
 16 48  1  0
 16 49  1  0
 17 50  1  0
 17 51  1  0
M  CHG  1  20  -1
M  END
>  <meeko>  (15) 
{"is_sidechain": [false], "free_energy": -5.084, "intermolecular_energy": -9.015, "internal_energy": -2.113}

$$$$
linoleate_run03
     RDKit          3D

 51 50  0  0  0  0  0  0  0  0999 V2000
   46.6430   31.9680   29.9540 C   0  0  0  0  0  0  0  0  0  0  0  0
   45.9150   31.8980   28.6210 C   0  0  0  0  0  0  0  0  0  0  0  0
   46.3480   32.9810   27.6310 C   0  0  0  0  0  0  0  0  0  0  0  0
   47.4690   32.5300   26.6900 C   0  0  0  0  0  0  0  0  0  0  0  0
   47.7710   33.6020   25.6350 C   0  0  0  0  0  0  0  0  0  0  0  0
   46.6710   34.5820   25.3310 C   0  0  0  0  0  0  0  0  0  0  0  0
   46.7210   35.9200   25.4310 C   0  0  0  0  0  0  0  0  0  0  0  0
   47.9390   36.6730   25.8850 C   0  0  0  0  0  0  0  0  0  0  0  0
   47.6400   37.5390   27.0720 C   0  0  0  0  0  0  0  0  0  0  0  0
   47.7890   37.1380   28.3440 C   0  0  0  0  0  0  0  0  0  0  0  0
   48.2750   35.7720   28.7360 C   0  0  0  0  0  0  0  0  0  0  0  0
   48.0450   35.4540   30.2180 C   0  0  0  0  0  0  0  0  0  0  0  0
   49.3430   35.3560   31.0260 C   0  0  0  0  0  0  0  0  0  0  0  0
   49.1610   35.6950   32.5090 C   0  0  0  0  0  0  0  0  0  0  0  0
   49.3040   34.4810   33.4310 C   0  0  0  0  0  0  0  0  0  0  0  0
   47.9740   33.7300   33.5670 C   0  0  0  0  0  0  0  0  0  0  0  0
   46.7660   34.6640   33.4900 C   0  0  0  0  0  0  0  0  0  0  0  0
   45.4500   33.9480   33.6770 C   0  0  0  0  0  0  0  0  0  0  0  0
   44.9530   33.1420   32.9070 O   0  0  0  0  0  0  0  0  0  0  0  0
   44.8900   34.3050   34.8610 O   0  0  0  0  0  0  0  0  0  0  0  0
   45.9135   31.8979   30.7743 H   0  0  0  0  0  0  0  0  0  0  0  0
   47.3571   31.1344   30.0260 H   0  0  0  0  0  0  0  0  0  0  0  0
   47.1851   32.9224   30.0260 H   0  0  0  0  0  0  0  0  0  0  0  0
   46.1108   30.9146   28.1687 H   0  0  0  0  0  0  0  0  0  0  0  0
   44.8464   32.0573   28.8275 H   0  0  0  0  0  0  0  0  0  0  0  0
   45.4766   33.2671   27.0237 H   0  0  0  0  0  0  0  0  0  0  0  0
   46.7377   33.8238   28.2208 H   0  0  0  0  0  0  0  0  0  0  0  0
   48.3781   32.3403   27.2796 H   0  0  0  0  0  0  0  0  0  0  0  0
   47.1441   31.6145   26.1740 H   0  0  0  0  0  0  0  0  0  0  0  0
   48.6418   34.1765   25.9839 H   0  0  0  0  0  0  0  0  0  0  0  0
   47.9303   33.0478   24.6983 H   0  0  0  0  0  0  0  0  0  0  0  0
   45.7176   34.1539   24.9879 H   0  0  0  0  0  0  0  0  0  0  0  0
   45.8218   36.4957   25.1663 H   0  0  0  0  0  0  0  0  0  0  0  0
   48.7238   35.9520   26.1574 H   0  0  0  0  0  0  0  0  0  0  0  0
   48.2710   37.3210   25.0604 H   0  0  0  0  0  0  0  0  0  0  0  0
   47.2778   38.5615   26.8897 H   0  0  0  0  0  0  0  0  0  0  0  0
   47.5411   37.8501   29.1449 H   0  0  0  0  0  0  0  0  0  0  0  0
   47.7422   35.0239   28.1307 H   0  0  0  0  0  0  0  0  0  0  0  0
   49.3605   35.7471   28.5599 H   0  0  0  0  0  0  0  0  0  0  0  0
   47.4223   36.2495   30.6531 H   0  0  0  0  0  0  0  0  0  0  0  0
   47.5556   34.4701   30.2677 H   0  0  0  0  0  0  0  0  0  0  0  0
   49.7264   34.3280   30.9474 H   0  0  0  0  0  0  0  0  0  0  0  0
   50.0439   36.0930   30.6070 H   0  0  0  0  0  0  0  0  0  0  0  0
   49.9195   36.4396   32.7923 H   0  0  0  0  0  0  0  0  0  0  0  0
   48.1371   36.0779   32.6318 H   0  0  0  0  0  0  0  0  0  0  0  0
   50.0599   33.7998   33.0131 H   0  0  0  0  0  0  0  0  0  0  0  0
   49.6091   34.8335   34.4273 H   0  0  0  0  0  0  0  0  0  0  0  0
   47.9012   32.9909   32.7556 H   0  0  0  0  0  0  0  0  0  0  0  0
   47.9615   33.2468   34.5551 H   0  0  0  0  0  0  0  0  0  0  0  0
   46.8636   35.4278   34.2756 H   0  0  0  0  0  0  0  0  0  0  0  0
   46.7579   35.1069   32.4831 H   0  0  0  0  0  0  0  0  0  0  0  0
  1  2  1  0
  2  3  1  0
  3  4  1  0
  4  5  1  0
  5  6  1  0
  6  7  2  0
  7  8  1  0
  8  9  1  0
  9 10  2  0
 10 11  1  0
 11 12  1  0
 12 13  1  0
 13 14  1  0
 14 15  1  0
 15 16  1  0
 16 17  1  0
 17 18  1  0
 18 19  2  0
 18 20  1  0
  1 21  1  0
  1 22  1  0
  1 23  1  0
  2 24  1  0
  2 25  1  0
  3 26  1  0
  3 27  1  0
  4 28  1  0
  4 29  1  0
  5 30  1  0
  5 31  1  0
  6 32  1  0
  7 33  1  0
  8 34  1  0
  8 35  1  0
  9 36  1  0
 10 37  1  0
 11 38  1  0
 11 39  1  0
 12 40  1  0
 12 41  1  0
 13 42  1  0
 13 43  1  0
 14 44  1  0
 14 45  1  0
 15 46  1  0
 15 47  1  0
 16 48  1  0
 16 49  1  0
 17 50  1  0
 17 51  1  0
M  CHG  1  20  -1
M  END
>  <meeko>  (16) 
{"is_sidechain": [false], "free_energy": -5.028, "intermolecular_energy": -9.192, "internal_energy": -1.835}

$$$$
linoleate_run03
     RDKit          3D

 51 50  0  0  0  0  0  0  0  0999 V2000
   49.8020   32.2630   28.1620 C   0  0  0  0  0  0  0  0  0  0  0  0
   50.9670   31.8090   27.2960 C   0  0  0  0  0  0  0  0  0  0  0  0
   51.0080   32.4850   25.9240 C   0  0  0  0  0  0  0  0  0  0  0  0
   50.5520   31.5700   24.7830 C   0  0  0  0  0  0  0  0  0  0  0  0
   49.0760   31.8110   24.4400 C   0  0  0  0  0  0  0  0  0  0  0  0
   48.0620   30.9950   25.1960 C   0  0  0  0  0  0  0  0  0  0  0  0
   46.8480   31.3880   25.6130 C   0  0  0  0  0  0  0  0  0  0  0  0
   46.2960   32.7650   25.3780 C   0  0  0  0  0  0  0  0  0  0  0  0
   46.1370   33.5210   26.6640 C   0  0  0  0  0  0  0  0  0  0  0  0
   46.9550   34.5100   27.0530 C   0  0  0  0  0  0  0  0  0  0  0  0
   48.1330   34.9840   26.2480 C   0  0  0  0  0  0  0  0  0  0  0  0
   48.0540   36.4710   25.8850 C   0  0  0  0  0  0  0  0  0  0  0  0
   47.3300   37.3150   26.9400 C   0  0  0  0  0  0  0  0  0  0  0  0
   48.1930   37.6220   28.1680 C   0  0  0  0  0  0  0  0  0  0  0  0
   47.6340   37.0330   29.4650 C   0  0  0  0  0  0  0  0  0  0  0  0
   48.5900   35.9890   30.0570 C   0  0  0  0  0  0  0  0  0  0  0  0
   47.9580   35.2040   31.2050 C   0  0  0  0  0  0  0  0  0  0  0  0
   48.2900   35.7700   32.5640 C   0  0  0  0  0  0  0  0  0  0  0  0
   49.2670   36.4490   32.8430 O   0  0  0  0  0  0  0  0  0  0  0  0
   47.3200   35.4430   33.4560 O   0  0  0  0  0  0  0  0  0  0  0  0
   50.0713   32.1580   29.2233 H   0  0  0  0  0  0  0  0  0  0  0  0
   49.5722   33.3165   27.9445 H   0  0  0  0  0  0  0  0  0  0  0  0
   48.9199   31.6428   27.9445 H   0  0  0  0  0  0  0  0  0  0  0  0
   51.9039   32.0380   27.8250 H   0  0  0  0  0  0  0  0  0  0  0  0
   50.8390   30.7305   27.1214 H   0  0  0  0  0  0  0  0  0  0  0  0
   50.3498   33.3660   25.9492 H   0  0  0  0  0  0  0  0  0  0  0  0
   52.0556   32.7554   25.7255 H   0  0  0  0  0  0  0  0  0  0  0  0
   51.1657   31.7723   23.8928 H   0  0  0  0  0  0  0  0  0  0  0  0
   50.6706   30.5246   25.1040 H   0  0  0  0  0  0  0  0  0  0  0  0
   48.8588   32.8722   24.6314 H   0  0  0  0  0  0  0  0  0  0  0  0
   48.9700   31.5011   23.3899 H   0  0  0  0  0  0  0  0  0  0  0  0
   48.3480   29.9598   25.4336 H   0  0  0  0  0  0  0  0  0  0  0  0
   46.2241   30.6627   26.1559 H   0  0  0  0  0  0  0  0  0  0  0  0
   46.9832   33.3181   24.7209 H   0  0  0  0  0  0  0  0  0  0  0  0
   45.3046   32.6643   24.9123 H   0  0  0  0  0  0  0  0  0  0  0  0
   45.3016   33.2485   27.3258 H   0  0  0  0  0  0  0  0  0  0  0  0
   46.7526   35.0023   28.0156 H   0  0  0  0  0  0  0  0  0  0  0  0
   49.0484   34.8149   26.8341 H   0  0  0  0  0  0  0  0  0  0  0  0
   48.1363   34.4161   25.3059 H   0  0  0  0  0  0  0  0  0  0  0  0
   49.0776   36.8574   25.7710 H   0  0  0  0  0  0  0  0  0  0  0  0
   47.4755   36.5485   24.9526 H   0  0  0  0  0  0  0  0  0  0  0  0
   47.0284   38.2669   26.4786 H   0  0  0  0  0  0  0  0  0  0  0  0
   46.4656   36.7302   27.2876 H   0  0  0  0  0  0  0  0  0  0  0  0
   49.1978   37.2068   28.0009 H   0  0  0  0  0  0  0  0  0  0  0  0
   48.2102   38.7153   28.2883 H   0  0  0  0  0  0  0  0  0  0  0  0
   47.4911   37.8435   30.1949 H   0  0  0  0  0  0  0  0  0  0  0  0
   46.6764   36.5407   29.2399 H   0  0  0  0  0  0  0  0  0  0  0  0
   48.8779   35.2838   29.2634 H   0  0  0  0  0  0  0  0  0  0  0  0
   49.4635   36.5239   30.4580 H   0  0  0  0  0  0  0  0  0  0  0  0
   46.8654   35.2170   31.0780 H   0  0  0  0  0  0  0  0  0  0  0  0
   48.3655   34.1830   31.1670 H   0  0  0  0  0  0  0  0  0  0  0  0
  1  2  1  0
  2  3  1  0
  3  4  1  0
  4  5  1  0
  5  6  1  0
  6  7  2  0
  7  8  1  0
  8  9  1  0
  9 10  2  0
 10 11  1  0
 11 12  1  0
 12 13  1  0
 13 14  1  0
 14 15  1  0
 15 16  1  0
 16 17  1  0
 17 18  1  0
 18 19  2  0
 18 20  1  0
  1 21  1  0
  1 22  1  0
  1 23  1  0
  2 24  1  0
  2 25  1  0
  3 26  1  0
  3 27  1  0
  4 28  1  0
  4 29  1  0
  5 30  1  0
  5 31  1  0
  6 32  1  0
  7 33  1  0
  8 34  1  0
  8 35  1  0
  9 36  1  0
 10 37  1  0
 11 38  1  0
 11 39  1  0
 12 40  1  0
 12 41  1  0
 13 42  1  0
 13 43  1  0
 14 44  1  0
 14 45  1  0
 15 46  1  0
 15 47  1  0
 16 48  1  0
 16 49  1  0
 17 50  1  0
 17 51  1  0
M  CHG  1  20  -1
M  END
>  <meeko>  (17) 
{"is_sidechain": [false], "free_energy": -5.005, "intermolecular_energy": -8.751, "internal_energy": -2.234}

$$$$
linoleate_run03
     RDKit          3D

 51 50  0  0  0  0  0  0  0  0999 V2000
   45.9550   30.2440   31.5010 C   0  0  0  0  0  0  0  0  0  0  0  0
   47.0030   31.1260   32.1600 C   0  0  0  0  0  0  0  0  0  0  0  0
   47.4150   32.3280   31.3070 C   0  0  0  0  0  0  0  0  0  0  0  0
   48.5440   32.0140   30.3210 C   0  0  0  0  0  0  0  0  0  0  0  0
   48.1470   32.3890   28.8880 C   0  0  0  0  0  0  0  0  0  0  0  0
   46.6860   32.6470   28.6350 C   0  0  0  0  0  0  0  0  0  0  0  0
   46.1170   33.0530   27.4880 C   0  0  0  0  0  0  0  0  0  0  0  0
   46.8910   33.3240   26.2290 C   0  0  0  0  0  0  0  0  0  0  0  0
   46.2220   34.3700   25.3880 C   0  0  0  0  0  0  0  0  0  0  0  0
   46.6450   35.6410   25.3040 C   0  0  0  0  0  0  0  0  0  0  0  0
   47.8400   36.1730   26.0420 C   0  0  0  0  0  0  0  0  0  0  0  0
   47.5770   37.5220   26.7210 C   0  0  0  0  0  0  0  0  0  0  0  0
   48.0030   37.5530   28.1920 C   0  0  0  0  0  0  0  0  0  0  0  0
   47.9080   36.1870   28.8800 C   0  0  0  0  0  0  0  0  0  0  0  0
   49.1160   35.8680   29.7640 C   0  0  0  0  0  0  0  0  0  0  0  0
   48.7140   35.7830   31.2420 C   0  0  0  0  0  0  0  0  0  0  0  0
   47.2150   35.9970   31.4510 C   0  0  0  0  0  0  0  0  0  0  0  0
   46.8610   36.3640   32.8720 C   0  0  0  0  0  0  0  0  0  0  0  0
   46.9580   37.4730   33.3740 O   0  0  0  0  0  0  0  0  0  0  0  0
   46.3790   35.2780   33.5280 O   0  0  0  0  0  0  0  0  0  0  0  0
   45.3582   29.7417   32.2766 H   0  0  0  0  0  0  0  0  0  0  0  0
   45.2959   30.8632   30.8748 H   0  0  0  0  0  0  0  0  0  0  0  0
   46.4525   29.4888   30.8748 H   0  0  0  0  0  0  0  0  0  0  0  0
   46.5961   31.4980   33.1119 H   0  0  0  0  0  0  0  0  0  0  0  0
   47.9017   30.5081   32.3028 H   0  0  0  0  0  0  0  0  0  0  0  0
   46.5381   32.6680   30.7366 H   0  0  0  0  0  0  0  0  0  0  0  0
   47.7888   33.1016   31.9939 H   0  0  0  0  0  0  0  0  0  0  0  0
   49.4395   32.5854   30.6067 H   0  0  0  0  0  0  0  0  0  0  0  0
   48.7469   30.9334   30.3555 H   0  0  0  0  0  0  0  0  0  0  0  0
   48.6980   33.3020   28.6180 H   0  0  0  0  0  0  0  0  0  0  0  0
   48.3932   31.5058   28.2802 H   0  0  0  0  0  0  0  0  0  0  0  0
   46.0075   32.4847   29.4855 H   0  0  0  0  0  0  0  0  0  0  0  0
   45.0263   33.1946   27.4694 H   0  0  0  0  0  0  0  0  0  0  0  0
   47.8995   33.6719   26.4971 H   0  0  0  0  0  0  0  0  0  0  0  0
   46.9407   32.3921   25.6466 H   0  0  0  0  0  0  0  0  0  0  0  0
   45.3344   34.0791   24.8071 H   0  0  0  0  0  0  0  0  0  0  0  0
   46.0845   36.3325   24.6578 H   0  0  0  0  0  0  0  0  0  0  0  0
   48.1284   35.4435   26.8131 H   0  0  0  0  0  0  0  0  0  0  0  0
   48.6392   36.3288   25.3024 H   0  0  0  0  0  0  0  0  0  0  0  0
   48.1349   38.3001   26.1795 H   0  0  0  0  0  0  0  0  0  0  0  0
   46.4910   37.6949   26.6925 H   0  0  0  0  0  0  0  0  0  0  0  0
   49.0456   37.8994   28.2462 H   0  0  0  0  0  0  0  0  0  0  0  0
   47.3131   38.2304   28.7165 H   0  0  0  0  0  0  0  0  0  0  0  0
   47.0040   36.1740   29.5065 H   0  0  0  0  0  0  0  0  0  0  0  0
   47.8746   35.4251   28.0873 H   0  0  0  0  0  0  0  0  0  0  0  0
   49.5441   34.9038   29.4525 H   0  0  0  0  0  0  0  0  0  0  0  0
   49.8546   36.6751   29.6495 H   0  0  0  0  0  0  0  0  0  0  0  0
   48.9858   34.7885   31.6255 H   0  0  0  0  0  0  0  0  0  0  0  0
   49.2453   36.5815   31.7807 H   0  0  0  0  0  0  0  0  0  0  0  0
   46.8812   36.8077   30.7867 H   0  0  0  0  0  0  0  0  0  0  0  0
   46.7132   35.0449   31.2237 H   0  0  0  0  0  0  0  0  0  0  0  0
  1  2  1  0
  2  3  1  0
  3  4  1  0
  4  5  1  0
  5  6  1  0
  6  7  2  0
  7  8  1  0
  8  9  1  0
  9 10  2  0
 10 11  1  0
 11 12  1  0
 12 13  1  0
 13 14  1  0
 14 15  1  0
 15 16  1  0
 16 17  1  0
 17 18  1  0
 18 19  2  0
 18 20  1  0
  1 21  1  0
  1 22  1  0
  1 23  1  0
  2 24  1  0
  2 25  1  0
  3 26  1  0
  3 27  1  0
  4 28  1  0
  4 29  1  0
  5 30  1  0
  5 31  1  0
  6 32  1  0
  7 33  1  0
  8 34  1  0
  8 35  1  0
  9 36  1  0
 10 37  1  0
 11 38  1  0
 11 39  1  0
 12 40  1  0
 12 41  1  0
 13 42  1  0
 13 43  1  0
 14 44  1  0
 14 45  1  0
 15 46  1  0
 15 47  1  0
 16 48  1  0
 16 49  1  0
 17 50  1  0
 17 51  1  0
M  CHG  1  20  -1
M  END
>  <meeko>  (18) 
{"is_sidechain": [false], "free_energy": -4.936, "intermolecular_energy": -8.468, "internal_energy": -2.392}

$$$$
linoleate_run03
     RDKit          3D

 51 50  0  0  0  0  0  0  0  0999 V2000
   52.3830   31.9770   25.1390 C   0  0  0  0  0  0  0  0  0  0  0  0
   51.2310   31.2880   24.4250 C   0  0  0  0  0  0  0  0  0  0  0  0
   49.8600   31.8750   24.7680 C   0  0  0  0  0  0  0  0  0  0  0  0
   49.9400   33.1390   25.6290 C   0  0  0  0  0  0  0  0  0  0  0  0
   49.2410   32.9340   26.9780 C   0  0  0  0  0  0  0  0  0  0  0  0
   48.1070   31.9440   27.0110 C   0  0  0  0  0  0  0  0  0  0  0  0
   46.7920   32.2120   27.0430 C   0  0  0  0  0  0  0  0  0  0  0  0
   46.2290   33.6040   27.0540 C   0  0  0  0  0  0  0  0  0  0  0  0
   45.9930   34.1130   25.6630 C   0  0  0  0  0  0  0  0  0  0  0  0
   46.6430   35.1600   25.1320 C   0  0  0  0  0  0  0  0  0  0  0  0
   47.6890   35.9510   25.8650 C   0  0  0  0  0  0  0  0  0  0  0  0
   47.2910   37.4150   26.0860 C   0  0  0  0  0  0  0  0  0  0  0  0
   47.4540   37.8740   27.5390 C   0  0  0  0  0  0  0  0  0  0  0  0
   48.3980   36.9850   28.3540 C   0  0  0  0  0  0  0  0  0  0  0  0
   47.7350   36.3660   29.5870 C   0  0  0  0  0  0  0  0  0  0  0  0
   48.7530   35.5890   30.4310 C   0  0  0  0  0  0  0  0  0  0  0  0
   48.0850   34.6050   31.3910 C   0  0  0  0  0  0  0  0  0  0  0  0
   47.7470   33.2830   30.7450 C   0  0  0  0  0  0  0  0  0  0  0  0
   46.6260   32.8760   30.4830 O   0  0  0  0  0  0  0  0  0  0  0  0
   48.8840   32.6000   30.4590 O   0  0  0  0  0  0  0  0  0  0  0  0
   52.2428   31.8932   26.2268 H   0  0  0  0  0  0  0  0  0  0  0  0
   53.3308   31.4974   24.8534 H   0  0  0  0  0  0  0  0  0  0  0  0
   52.4088   33.0390   24.8534 H   0  0  0  0  0  0  0  0  0  0  0  0
   51.3881   31.3816   23.3403 H   0  0  0  0  0  0  0  0  0  0  0  0
   51.2258   30.2395   24.7575 H   0  0  0  0  0  0  0  0  0  0  0  0
   49.3422   32.1238   23.8299 H   0  0  0  0  0  0  0  0  0  0  0  0
   49.3181   31.1168   25.3523 H   0  0  0  0  0  0  0  0  0  0  0  0
   50.9970   33.3865   25.8062 H   0  0  0  0  0  0  0  0  0  0  0  0
   49.4351   33.9575   25.0951 H   0  0  0  0  0  0  0  0  0  0  0  0
   50.0002   32.5947   27.6981 H   0  0  0  0  0  0  0  0  0  0  0  0
   48.7824   33.9053   27.2153 H   0  0  0  0  0  0  0  0  0  0  0  0
   48.3880   30.8805   27.0086 H   0  0  0  0  0  0  0  0  0  0  0  0
   46.0889   31.3662   27.0622 H   0  0  0  0  0  0  0  0  0  0  0  0
   45.2738   33.5988   27.5995 H   0  0  0  0  0  0  0  0  0  0  0  0
   46.9570   34.2666   27.5449 H   0  0  0  0  0  0  0  0  0  0  0  0
   45.2443   33.5986   25.0427 H   0  0  0  0  0  0  0  0  0  0  0  0
   46.3960   35.4559   24.1017 H   0  0  0  0  0  0  0  0  0  0  0  0
   47.8588   35.4825   26.8457 H   0  0  0  0  0  0  0  0  0  0  0  0
   48.5971   35.9481   25.2443 H   0  0  0  0  0  0  0  0  0  0  0  0
   47.9227   38.0490   25.4465 H   0  0  0  0  0  0  0  0  0  0  0  0
   46.2242   37.5046   25.8334 H   0  0  0  0  0  0  0  0  0  0  0  0
   47.8535   38.8989   27.5384 H   0  0  0  0  0  0  0  0  0  0  0  0
   46.4626   37.8153   28.0119 H   0  0  0  0  0  0  0  0  0  0  0  0
   48.7577   36.1720   27.7062 H   0  0  0  0  0  0  0  0  0  0  0  0
   49.2183   37.6243   28.7123 H   0  0  0  0  0  0  0  0  0  0  0  0
   47.2976   37.1678   30.2001 H   0  0  0  0  0  0  0  0  0  0  0  0
   46.9552   35.6672   29.2501 H   0  0  0  0  0  0  0  0  0  0  0  0
   49.4167   35.0286   29.7562 H   0  0  0  0  0  0  0  0  0  0  0  0
   49.3136   36.3179   31.0347 H   0  0  0  0  0  0  0  0  0  0  0  0
   48.7684   34.4186   32.2326 H   0  0  0  0  0  0  0  0  0  0  0  0
   47.1393   35.0598   31.7207 H   0  0  0  0  0  0  0  0  0  0  0  0
  1  2  1  0
  2  3  1  0
  3  4  1  0
  4  5  1  0
  5  6  1  0
  6  7  2  0
  7  8  1  0
  8  9  1  0
  9 10  2  0
 10 11  1  0
 11 12  1  0
 12 13  1  0
 13 14  1  0
 14 15  1  0
 15 16  1  0
 16 17  1  0
 17 18  1  0
 18 19  2  0
 18 20  1  0
  1 21  1  0
  1 22  1  0
  1 23  1  0
  2 24  1  0
  2 25  1  0
  3 26  1  0
  3 27  1  0
  4 28  1  0
  4 29  1  0
  5 30  1  0
  5 31  1  0
  6 32  1  0
  7 33  1  0
  8 34  1  0
  8 35  1  0
  9 36  1  0
 10 37  1  0
 11 38  1  0
 11 39  1  0
 12 40  1  0
 12 41  1  0
 13 42  1  0
 13 43  1  0
 14 44  1  0
 14 45  1  0
 15 46  1  0
 15 47  1  0
 16 48  1  0
 16 49  1  0
 17 50  1  0
 17 51  1  0
M  CHG  1  20  -1
M  END
>  <meeko>  (19) 
{"is_sidechain": [false], "free_energy": -4.899, "intermolecular_energy": -8.448, "internal_energy": -2.345}

$$$$
linoleate_run03
     RDKit          3D

 51 50  0  0  0  0  0  0  0  0999 V2000
   47.8840   35.9220   30.1210 C   0  0  0  0  0  0  0  0  0  0  0  0
   48.0100   36.0600   28.6120 C   0  0  0  0  0  0  0  0  0  0  0  0
   47.7630   37.4830   28.1050 C   0  0  0  0  0  0  0  0  0  0  0  0
   47.3600   37.5390   26.6280 C   0  0  0  0  0  0  0  0  0  0  0  0
   47.7370   36.2420   25.9030 C   0  0  0  0  0  0  0  0  0  0  0  0
   46.6350   35.5350   25.1590 C   0  0  0  0  0  0  0  0  0  0  0  0
   46.2860   34.2430   25.2550 C   0  0  0  0  0  0  0  0  0  0  0  0
   46.9760   33.2620   26.1600 C   0  0  0  0  0  0  0  0  0  0  0  0
   46.1660   32.9860   27.3920 C   0  0  0  0  0  0  0  0  0  0  0  0
   46.6980   32.5960   28.5600 C   0  0  0  0  0  0  0  0  0  0  0  0
   48.1690   32.3880   28.7790 C   0  0  0  0  0  0  0  0  0  0  0  0
   48.5010   31.8700   30.1830 C   0  0  0  0  0  0  0  0  0  0  0  0
   47.2720   31.7420   31.0890 C   0  0  0  0  0  0  0  0  0  0  0  0
   47.6250   31.5720   32.5710 C   0  0  0  0  0  0  0  0  0  0  0  0
   46.6040   30.7360   33.3450 C   0  0  0  0  0  0  0  0  0  0  0  0
   45.7720   31.6130   34.2890 C   0  0  0  0  0  0  0  0  0  0  0  0
   46.4160   32.9770   34.5360 C   0  0  0  0  0  0  0  0  0  0  0  0
   45.6370   34.1190   33.9290 C   0  0  0  0  0  0  0  0  0  0  0  0
   45.7930   34.5830   32.8100 O   0  0  0  0  0  0  0  0  0  0  0  0
   44.6950   34.5580   34.8020 O   0  0  0  0  0  0  0  0  0  0  0  0
   48.5476   36.6488   30.6123 H   0  0  0  0  0  0  0  0  0  0  0  0
   46.8434   36.1143   30.4212 H   0  0  0  0  0  0  0  0  0  0  0  0
   48.1699   34.9031   30.4212 H   0  0  0  0  0  0  0  0  0  0  0  0
   49.0261   35.7576   28.3186 H   0  0  0  0  0  0  0  0  0  0  0  0
   47.2372   35.4186   28.1633 H   0  0  0  0  0  0  0  0  0  0  0  0
   46.9570   37.9320   28.7040 H   0  0  0  0  0  0  0  0  0  0  0  0
   48.7101   38.0334   28.2052 H   0  0  0  0  0  0  0  0  0  0  0  0
   46.2722   37.6865   26.5579 H   0  0  0  0  0  0  0  0  0  0  0  0
   47.8951   38.3736   26.1515 H   0  0  0  0  0  0  0  0  0  0  0  0
   48.5267   36.4843   25.1766 H   0  0  0  0  0  0  0  0  0  0  0  0
   48.0402   35.5453   26.6984 H   0  0  0  0  0  0  0  0  0  0  0  0
   46.0497   36.1473   24.4572 H   0  0  0  0  0  0  0  0  0  0  0  0
   45.4497   33.8826   24.6379 H   0  0  0  0  0  0  0  0  0  0  0  0
   47.1292   32.3192   25.6144 H   0  0  0  0  0  0  0  0  0  0  0  0
   47.9380   33.6963   26.4698 H   0  0  0  0  0  0  0  0  0  0  0  0
   45.0746   33.1104   27.3344 H   0  0  0  0  0  0  0  0  0  0  0  0
   46.0177   32.4184   29.4059 H   0  0  0  0  0  0  0  0  0  0  0  0
   48.5329   31.6576   28.0413 H   0  0  0  0  0  0  0  0  0  0  0  0
   48.6588   33.3665   28.6663 H   0  0  0  0  0  0  0  0  0  0  0  0
   48.9691   30.8791   30.0878 H   0  0  0  0  0  0  0  0  0  0  0  0
   49.1744   32.6039   30.6498 H   0  0  0  0  0  0  0  0  0  0  0  0
   46.6605   32.6496   30.9778 H   0  0  0  0  0  0  0  0  0  0  0  0
   46.7310   30.8363   30.7774 H   0  0  0  0  0  0  0  0  0  0  0  0
   48.6056   31.0786   32.6418 H   0  0  0  0  0  0  0  0  0  0  0  0
   47.6321   32.5757   33.0211 H   0  0  0  0  0  0  0  0  0  0  0  0
   45.9313   30.2391   32.6305 H   0  0  0  0  0  0  0  0  0  0  0  0
   47.1467   29.9926   33.9473 H   0  0  0  0  0  0  0  0  0  0  0  0
   44.7780   31.7671   33.8438 H   0  0  0  0  0  0  0  0  0  0  0  0
   45.7042   31.0939   35.2565 H   0  0  0  0  0  0  0  0  0  0  0  0
   46.4864   33.1394   35.6217 H   0  0  0  0  0  0  0  0  0  0  0  0
   47.4058   32.9638   34.0562 H   0  0  0  0  0  0  0  0  0  0  0  0
  1  2  1  0
  2  3  1  0
  3  4  1  0
  4  5  1  0
  5  6  1  0
  6  7  2  0
  7  8  1  0
  8  9  1  0
  9 10  2  0
 10 11  1  0
 11 12  1  0
 12 13  1  0
 13 14  1  0
 14 15  1  0
 15 16  1  0
 16 17  1  0
 17 18  1  0
 18 19  2  0
 18 20  1  0
  1 21  1  0
  1 22  1  0
  1 23  1  0
  2 24  1  0
  2 25  1  0
  3 26  1  0
  3 27  1  0
  4 28  1  0
  4 29  1  0
  5 30  1  0
  5 31  1  0
  6 32  1  0
  7 33  1  0
  8 34  1  0
  8 35  1  0
  9 36  1  0
 10 37  1  0
 11 38  1  0
 11 39  1  0
 12 40  1  0
 12 41  1  0
 13 42  1  0
 13 43  1  0
 14 44  1  0
 14 45  1  0
 15 46  1  0
 15 47  1  0
 16 48  1  0
 16 49  1  0
 17 50  1  0
 17 51  1  0
M  CHG  1  20  -1
M  END
>  <meeko>  (20) 
{"is_sidechain": [false], "free_energy": -4.898, "intermolecular_energy": -8.967, "internal_energy": -1.825}

$$$$
