linoleate_run01
     RDKit          3D

 51 50  0  0  0  0  0  0  0  0999 V2000
   49.5440   31.7610   24.5090 C   0  0  0  0  0  0  0  0  0  0  0  0
   49.9360   32.9240   25.4060 C   0  0  0  0  0  0  0  0  0  0  0  0
   49.0250   33.0900   26.6240 C   0  0  0  0  0  0  0  0  0  0  0  0
   47.6530   32.4320   26.4490 C   0  0  0  0  0  0  0  0  0  0  0  0
   46.5220   33.4400   26.6890 C   0  0  0  0  0  0  0  0  0  0  0  0
   46.1050   34.2830   25.5130 C   0  0  0  0  0  0  0  0  0  0  0  0
   46.6270   35.4570   25.1250 C   0  0  0  0  0  0  0  0  0  0  0  0
   47.7590   36.1380   25.8420 C   0  0  0  0  0  0  0  0  0  0  0  0
   47.3970   37.5390   26.2350 C   0  0  0  0  0  0  0  0  0  0  0  0
   47.7010   38.0820   27.4240 C   0  0  0  0  0  0  0  0  0  0  0  0
   48.4440   37.3520   28.5080 C   0  0  0  0  0  0  0  0  0  0  0  0
   47.5160   36.7060   29.5430 C   0  0  0  0  0  0  0  0  0  0  0  0
   47.7090   35.1910   29.6690 C   0  0  0  0  0  0  0  0  0  0  0  0
   48.0620   34.7410   31.0900 C   0  0  0  0  0  0  0  0  0  0  0  0
   47.8740   35.8410   32.1390 C   0  0  0  0  0  0  0  0  0  0  0  0
   46.5570   35.6570   32.9020 C   0  0  0  0  0  0  0  0  0  0  0  0
   45.6590   36.8910   32.8220 C   0  0  0  0  0  0  0  0  0  0  0  0
   44.3710   36.7390   33.5930 C   0  0  0  0  0  0  0  0  0  0  0  0
   44.0410   37.3810   34.5780 O   0  0  0  0  0  0  0  0  0  0  0  0
   43.5910   35.7890   33.0170 O   0  0  0  0  0  0  0  0  0  0  0  0
   49.2540   30.9006   25.1299 H   0  0  0  0  0  0  0  0  0  0  0  0
   48.6961   32.0573   23.8740 H   0  0  0  0  0  0  0  0  0  0  0  0
   50.3983   31.4836   23.8740 H   0  0  0  0  0  0  0  0  0  0  0  0
   50.9643   32.7591   25.7603 H   0  0  0  0  0  0  0  0  0  0  0  0
   49.8433   33.8410   24.8055 H   0  0  0  0  0  0  0  0  0  0  0  0
   49.5209   32.6369   27.4951 H   0  0  0  0  0  0  0  0  0  0  0  0
   48.8542   34.1683   26.7584 H   0  0  0  0  0  0  0  0  0  0  0  0
   47.5716   32.0379   25.4253 H   0  0  0  0  0  0  0  0  0  0  0  0
   47.5588   31.6198   27.1848 H   0  0  0  0  0  0  0  0  0  0  0  0
   45.6390   32.8763   27.0245 H   0  0  0  0  0  0  0  0  0  0  0  0
   46.9213   34.1514   27.4268 H   0  0  0  0  0  0  0  0  0  0  0  0
   45.2780   33.8919   24.9021 H   0  0  0  0  0  0  0  0  0  0  0  0
   46.2041   35.9466   24.2354 H   0  0  0  0  0  0  0  0  0  0  0  0
   48.0045   35.5647   26.7481 H   0  0  0  0  0  0  0  0  0  0  0  0
   48.6217   36.1826   25.1610 H   0  0  0  0  0  0  0  0  0  0  0  0
   46.8510   38.1571   25.5071 H   0  0  0  0  0  0  0  0  0  0  0  0
   47.3891   39.1192   27.6162 H   0  0  0  0  0  0  0  0  0  0  0  0
   49.0540   36.5630   28.0440 H   0  0  0  0  0  0  0  0  0  0  0  0
   49.0616   38.0921   29.0379 H   0  0  0  0  0  0  0  0  0  0  0  0
   47.7124   37.1656   30.5229 H   0  0  0  0  0  0  0  0  0  0  0  0
   46.4831   36.8756   29.2049 H   0  0  0  0  0  0  0  0  0  0  0  0
   46.7753   34.6939   29.3672 H   0  0  0  0  0  0  0  0  0  0  0  0
   48.5538   34.9153   29.0208 H   0  0  0  0  0  0  0  0  0  0  0  0
   47.4176   33.8904   31.3569 H   0  0  0  0  0  0  0  0  0  0  0  0
   49.1281   34.4700   31.0901 H   0  0  0  0  0  0  0  0  0  0  0  0
   48.7106   35.8040   32.8523 H   0  0  0  0  0  0  0  0  0  0  0  0
   47.8470   36.8131   31.6248 H   0  0  0  0  0  0  0  0  0  0  0  0
   46.0176   34.7994   32.4736 H   0  0  0  0  0  0  0  0  0  0  0  0
   46.8038   35.4904   33.9609 H   0  0  0  0  0  0  0  0  0  0  0  0
   46.2104   37.7517   33.2284 H   0  0  0  0  0  0  0  0  0  0  0  0
   45.3923   37.0336   31.7644 H   0  0  0  0  0  0  0  0  0  0  0  0
  1  2  1  0
  2  3  1  0
  3  4  1  0
  4  5  1  0
  5  6  1  0
  6  7  2  0
  7  8  1  0
  8  9  1  0
  9 10  2  0
 10 11  1  0
 11 12  1  0
 12 13  1  0
 13 14  1  0
 14 15  1  0
 15 16  1  0
 16 17  1  0
 17 18  1  0
 18 19  2  0
 18 20  1  0
  1 21  1  0
  1 22  1  0
  1 23  1  0
  2 24  1  0
  2 25  1  0
  3 26  1  0
  3 27  1  0
  4 28  1  0
  4 29  1  0
  5 30  1  0
  5 31  1  0
  6 32  1  0
  7 33  1  0
  8 34  1  0
  8 35  1  0
  9 36  1  0
 10 37  1  0
 11 38  1  0
 11 39  1  0
 12 40  1  0
 12 41  1  0
 13 42  1  0
 13 43  1  0
 14 44  1  0
 14 45  1  0
 15 46  1  0
 15 47  1  0
 16 48  1  0
 16 49  1  0
 17 50  1  0
 17 51  1  0
M  CHG  1  20  -1
M  END
>  <meeko>  (1) 
{"is_sidechain": [false], "free_energy": -5.788, "intermolecular_energy": -10.524, "internal_energy": -1.734}

$$$$
linoleate_run01
     RDKit          3D

 51 50  0  0  0  0  0  0  0  0999 V2000
   52.4140   32.2600   25.2820 C   0  0  0  0  0  0  0  0  0  0  0  0
   51.3910   31.4000   24.5570 C   0  0  0  0  0  0  0  0  0  0  0  0
   49.9600   31.9310   24.6650 C   0  0  0  0  0  0  0  0  0  0  0  0
   49.8360   33.1590   25.5730 C   0  0  0  0  0  0  0  0  0  0  0  0
   49.1700   32.7960   26.9060 C   0  0  0  0  0  0  0  0  0  0  0  0
   48.0050   31.8440   26.8450 C   0  0  0  0  0  0  0  0  0  0  0  0
   46.7000   32.1550   26.8230 C   0  0  0  0  0  0  0  0  0  0  0  0
   46.1830   33.5650   26.8590 C   0  0  0  0  0  0  0  0  0  0  0  0
   45.8440   34.0630   25.4850 C   0  0  0  0  0  0  0  0  0  0  0  0
   46.4490   35.1080   24.9010 C   0  0  0  0  0  0  0  0  0  0  0  0
   47.5410   35.9090   25.5500 C   0  0  0  0  0  0  0  0  0  0  0  0
   47.0200   37.1380   26.3040 C   0  0  0  0  0  0  0  0  0  0  0  0
   48.0070   37.6740   27.3460 C   0  0  0  0  0  0  0  0  0  0  0  0
   47.7210   37.1750   28.7660 C   0  0  0  0  0  0  0  0  0  0  0  0
   48.2660   35.7700   29.0360 C   0  0  0  0  0  0  0  0  0  0  0  0
   48.9230   35.6890   30.4200 C   0  0  0  0  0  0  0  0  0  0  0  0
   48.0950   34.8720   31.4110 C   0  0  0  0  0  0  0  0  0  0  0  0
   48.1500   35.4150   32.8190 C   0  0  0  0  0  0  0  0  0  0  0  0
   47.5830   34.9460   33.7940 O   0  0  0  0  0  0  0  0  0  0  0  0
   48.9580   36.5040   32.8680 O   0  0  0  0  0  0  0  0  0  0  0  0
   52.2822   32.1492   26.3684 H   0  0  0  0  0  0  0  0  0  0  0  0
   53.4279   31.9390   25.0010 H   0  0  0  0  0  0  0  0  0  0  0  0
   52.2720   33.3140   25.0010 H   0  0  0  0  0  0  0  0  0  0  0  0
   51.6660   31.3546   23.4929 H   0  0  0  0  0  0  0  0  0  0  0  0
   51.4051   30.4092   25.0345 H   0  0  0  0  0  0  0  0  0  0  0  0
   49.6123   32.2049   23.6580 H   0  0  0  0  0  0  0  0  0  0  0  0
   49.3491   31.1326   25.1116 H   0  0  0  0  0  0  0  0  0  0  0  0
   50.8402   33.5619   25.7712 H   0  0  0  0  0  0  0  0  0  0  0  0
   49.2120   33.9082   25.0637 H   0  0  0  0  0  0  0  0  0  0  0  0
   49.9381   32.3415   27.5490 H   0  0  0  0  0  0  0  0  0  0  0  0
   48.7513   33.7398   27.2854 H   0  0  0  0  0  0  0  0  0  0  0  0
   48.2517   30.7724   26.8151 H   0  0  0  0  0  0  0  0  0  0  0  0
   45.9697   31.3337   26.7761 H   0  0  0  0  0  0  0  0  0  0  0  0
   45.2785   33.5979   27.4841 H   0  0  0  0  0  0  0  0  0  0  0  0
   46.9709   34.2103   27.2747 H   0  0  0  0  0  0  0  0  0  0  0  0
   45.0542   33.5414   24.9245 H   0  0  0  0  0  0  0  0  0  0  0  0
   46.1269   35.3946   23.8890 H   0  0  0  0  0  0  0  0  0  0  0  0
   48.0739   35.2616   26.2620 H   0  0  0  0  0  0  0  0  0  0  0  0
   48.2014   36.2720   24.7487 H   0  0  0  0  0  0  0  0  0  0  0  0
   46.8164   37.9350   25.5738 H   0  0  0  0  0  0  0  0  0  0  0  0
   46.1130   36.8283   26.8439 H   0  0  0  0  0  0  0  0  0  0  0  0
   49.0211   37.3561   27.0620 H   0  0  0  0  0  0  0  0  0  0  0  0
   47.9037   38.7691   27.3590 H   0  0  0  0  0  0  0  0  0  0  0  0
   48.1832   37.8719   29.4806 H   0  0  0  0  0  0  0  0  0  0  0  0
   46.6280   37.1278   28.8805 H   0  0  0  0  0  0  0  0  0  0  0  0
   47.4374   35.0480   28.9888 H   0  0  0  0  0  0  0  0  0  0  0  0
   49.0252   35.5375   28.2747 H   0  0  0  0  0  0  0  0  0  0  0  0
   49.9121   35.2194   30.3146 H   0  0  0  0  0  0  0  0  0  0  0  0
   49.0029   36.7130   30.8138 H   0  0  0  0  0  0  0  0  0  0  0  0
   47.0472   34.8732   31.0761 H   0  0  0  0  0  0  0  0  0  0  0  0
   48.5192   33.8573   31.4343 H   0  0  0  0  0  0  0  0  0  0  0  0
  1  2  1  0
  2  3  1  0
  3  4  1  0
  4  5  1  0
  5  6  1  0
  6  7  2  0
  7  8  1  0
  8  9  1  0
  9 10  2  0
 10 11  1  0
 11 12  1  0
 12 13  1  0
 13 14  1  0
 14 15  1  0
 15 16  1  0
 16 17  1  0
 17 18  1  0
 18 19  2  0
 18 20  1  0
  1 21  1  0
  1 22  1  0
  1 23  1  0
  2 24  1  0
  2 25  1  0
  3 26  1  0
  3 27  1  0
  4 28  1  0
  4 29  1  0
  5 30  1  0
  5 31  1  0
  6 32  1  0
  7 33  1  0
  8 34  1  0
  8 35  1  0
  9 36  1  0
 10 37  1  0
 11 38  1  0
 11 39  1  0
 12 40  1  0
 12 41  1  0
 13 42  1  0
 13 43  1  0
 14 44  1  0
 14 45  1  0
 15 46  1  0
 15 47  1  0
 16 48  1  0
 16 49  1  0
 17 50  1  0
 17 51  1  0
M  CHG  1  20  -1
M  END
>  <meeko>  (2) 
{"is_sidechain": [false], "free_energy": -5.602, "intermolecular_energy": -9.972, "internal_energy": -1.948}

$$$$
linoleate_run01
     RDKit          3D

 51 50  0  0  0  0  0  0  0  0999 V2000
   46.1720   33.2120   27.6210 C   0  0  0  0  0  0  0  0  0  0  0  0
   47.2610   33.5850   26.6270 C   0  0  0  0  0  0  0  0  0  0  0  0
   46.7360   34.3250   25.3950 C   0  0  0  0  0  0  0  0  0  0  0  0
   46.8750   35.8470   25.4960 C   0  0  0  0  0  0  0  0  0  0  0  0
   48.0590   36.2350   26.3900 C   0  0  0  0  0  0  0  0  0  0  0  0
   47.8630   37.4200   27.2980 C   0  0  0  0  0  0  0  0  0  0  0  0
   47.7200   37.4090   28.6320 C   0  0  0  0  0  0  0  0  0  0  0  0
   47.7330   36.1540   29.4580 C   0  0  0  0  0  0  0  0  0  0  0  0
   49.1320   35.7350   29.8000 C   0  0  0  0  0  0  0  0  0  0  0  0
   49.4290   34.6270   30.4960 C   0  0  0  0  0  0  0  0  0  0  0  0
   48.3970   33.6680   31.0160 C   0  0  0  0  0  0  0  0  0  0  0  0
   48.6730   33.2070   32.4520 C   0  0  0  0  0  0  0  0  0  0  0  0
   48.2600   34.2370   33.5090 C   0  0  0  0  0  0  0  0  0  0  0  0
   46.8760   34.8460   33.2540 C   0  0  0  0  0  0  0  0  0  0  0  0
   46.9200   36.3450   32.9500 C   0  0  0  0  0  0  0  0  0  0  0  0
   45.5070   36.9390   32.8890 C   0  0  0  0  0  0  0  0  0  0  0  0
   44.4390   35.9490   33.3500 C   0  0  0  0  0  0  0  0  0  0  0  0
   43.2840   36.6120   34.0620 C   0  0  0  0  0  0  0  0  0  0  0  0
   42.0980   36.3830   33.8780 O   0  0  0  0  0  0  0  0  0  0  0  0
   43.7470   37.4980   34.9790 O   0  0  0  0  0  0  0  0  0  0  0  0
   46.5507   33.3417   28.6456 H   0  0  0  0  0  0  0  0  0  0  0  0
   45.2978   33.8619   27.4682 H   0  0  0  0  0  0  0  0  0  0  0  0
   45.8799   32.1626   27.4682 H   0  0  0  0  0  0  0  0  0  0  0  0
   47.9908   34.2313   27.1365 H   0  0  0  0  0  0  0  0  0  0  0  0
   47.7109   32.6458   26.2727 H   0  0  0  0  0  0  0  0  0  0  0  0
   47.2992   33.9808   24.5150 H   0  0  0  0  0  0  0  0  0  0  0  0
   45.6621   34.1011   25.3142 H   0  0  0  0  0  0  0  0  0  0  0  0
   47.0342   36.2608   24.4893 H   0  0  0  0  0  0  0  0  0  0  0  0
   45.9542   36.2533   25.9398 H   0  0  0  0  0  0  0  0  0  0  0  0
   48.2974   35.3669   27.0222 H   0  0  0  0  0  0  0  0  0  0  0  0
   48.8589   36.5327   25.6960 H   0  0  0  0  0  0  0  0  0  0  0  0
   47.8337   38.4067   26.8126 H   0  0  0  0  0  0  0  0  0  0  0  0
   47.5860   38.3707   29.1489 H   0  0  0  0  0  0  0  0  0  0  0  0
   47.1759   36.3334   30.3894 H   0  0  0  0  0  0  0  0  0  0  0  0
   47.2658   35.3497   28.8708 H   0  0  0  0  0  0  0  0  0  0  0  0
   49.9618   36.3724   29.4609 H   0  0  0  0  0  0  0  0  0  0  0  0
   50.4882   34.4088   30.6970 H   0  0  0  0  0  0  0  0  0  0  0  0
   47.4149   34.1627   30.9899 H   0  0  0  0  0  0  0  0  0  0  0  0
   48.4260   32.7753   30.3739 H   0  0  0  0  0  0  0  0  0  0  0  0
   48.1143   32.2770   32.6337 H   0  0  0  0  0  0  0  0  0  0  0  0
   49.7595   33.0625   32.5448 H   0  0  0  0  0  0  0  0  0  0  0  0
   48.2485   33.7433   34.4919 H   0  0  0  0  0  0  0  0  0  0  0  0
   48.9904   35.0584   33.4664 H   0  0  0  0  0  0  0  0  0  0  0  0
   46.4200   34.3293   32.3967 H   0  0  0  0  0  0  0  0  0  0  0  0
   46.2893   34.7180   34.1757 H   0  0  0  0  0  0  0  0  0  0  0  0
   47.4901   36.8551   33.7405 H   0  0  0  0  0  0  0  0  0  0  0  0
   47.4014   36.4885   31.9714 H   0  0  0  0  0  0  0  0  0  0  0  0
   45.4688   37.8271   33.5370 H   0  0  0  0  0  0  0  0  0  0  0  0
   45.2961   37.1959   31.8404 H   0  0  0  0  0  0  0  0  0  0  0  0
   44.0490   35.4191   32.4684 H   0  0  0  0  0  0  0  0  0  0  0  0
   44.9151   35.2629   34.0659 H   0  0  0  0  0  0  0  0  0  0  0  0
  1  2  1  0
  2  3  1  0
  3  4  1  0
  4  5  1  0
  5  6  1  0
  6  7  2  0
  7  8  1  0
  8  9  1  0
  9 10  2  0
 10 11  1  0
 11 12  1  0
 12 13  1  0
 13 14  1  0
 14 15  1  0
 15 16  1  0
 16 17  1  0
 17 18  1  0
 18 19  2  0
 18 20  1  0
  1 21  1  0
  1 22  1  0
  1 23  1  0
  2 24  1  0
  2 25  1  0
  3 26  1  0
  3 27  1  0
  4 28  1  0
  4 29  1  0
  5 30  1  0
  5 31  1  0
  6 32  1  0
  7 33  1  0
  8 34  1  0
  8 35  1  0
  9 36  1  0
 10 37  1  0
 11 38  1  0
 11 39  1  0
 12 40  1  0
 12 41  1  0
 13 42  1  0
 13 43  1  0
 14 44  1  0
 14 45  1  0
 15 46  1  0
 15 47  1  0
 16 48  1  0
 16 49  1  0
 17 50  1  0
 17 51  1  0
M  CHG  1  20  -1
M  END
>  <meeko>  (3) 
{"is_sidechain": [false], "free_energy": -5.508, "intermolecular_energy": -9.712, "internal_energy": -2.038}

$$$$
linoleate_run01
     RDKit          3D

 51 50  0  0  0  0  0  0  0  0999 V2000
   49.4020   31.1920   24.3620 C   0  0  0  0  0  0  0  0  0  0  0  0
   50.4110   32.2610   24.7500 C   0  0  0  0  0  0  0  0  0  0  0  0
   50.0450   33.0100   26.0330 C   0  0  0  0  0  0  0  0  0  0  0  0
   49.9220   32.0940   27.2550 C   0  0  0  0  0  0  0  0  0  0  0  0
   48.9490   32.6780   28.2870 C   0  0  0  0  0  0  0  0  0  0  0  0
   47.6950   31.8920   28.5570 C   0  0  0  0  0  0  0  0  0  0  0  0
   46.4470   32.1860   28.1570 C   0  0  0  0  0  0  0  0  0  0  0  0
   46.1010   33.4010   27.3460 C   0  0  0  0  0  0  0  0  0  0  0  0
   46.4450   33.2120   25.8980 C   0  0  0  0  0  0  0  0  0  0  0  0
   46.6510   34.2250   25.0420 C   0  0  0  0  0  0  0  0  0  0  0  0
   46.5650   35.6740   25.4300 C   0  0  0  0  0  0  0  0  0  0  0  0
   47.9080   36.2560   25.8850 C   0  0  0  0  0  0  0  0  0  0  0  0
   47.7740   37.6080   26.5950 C   0  0  0  0  0  0  0  0  0  0  0  0
   48.2340   37.5730   28.0570 C   0  0  0  0  0  0  0  0  0  0  0  0
   47.7270   36.3500   28.8240 C   0  0  0  0  0  0  0  0  0  0  0  0
   48.6990   35.9560   29.9420 C   0  0  0  0  0  0  0  0  0  0  0  0
   48.0470   35.0600   30.9940 C   0  0  0  0  0  0  0  0  0  0  0  0
   47.6470   35.8070   32.2440 C   0  0  0  0  0  0  0  0  0  0  0  0
   48.3710   36.5240   32.9170 O   0  0  0  0  0  0  0  0  0  0  0  0
   46.3330   35.5960   32.5140 O   0  0  0  0  0  0  0  0  0  0  0  0
   48.9770   30.7417   25.2712 H   0  0  0  0  0  0  0  0  0  0  0  0
   48.5963   31.6469   23.7670 H   0  0  0  0  0  0  0  0  0  0  0  0
   49.9026   30.4139   23.7670 H   0  0  0  0  0  0  0  0  0  0  0  0
   51.3895   31.7798   24.8950 H   0  0  0  0  0  0  0  0  0  0  0  0
   50.4262   33.0015   23.9367 H   0  0  0  0  0  0  0  0  0  0  0  0
   50.8252   33.7587   26.2349 H   0  0  0  0  0  0  0  0  0  0  0  0
   49.0597   33.4716   25.8712 H   0  0  0  0  0  0  0  0  0  0  0  0
   49.5535   31.1097   26.9305 H   0  0  0  0  0  0  0  0  0  0  0  0
   50.9131   32.0006   27.7229 H   0  0  0  0  0  0  0  0  0  0  0  0
   49.4921   32.7755   29.2386 H   0  0  0  0  0  0  0  0  0  0  0  0
   48.6053   33.6286   27.8531 H   0  0  0  0  0  0  0  0  0  0  0  0
   47.8136   30.9725   29.1490 H   0  0  0  0  0  0  0  0  0  0  0  0
   45.6348   31.4997   28.4388 H   0  0  0  0  0  0  0  0  0  0  0  0
   45.0218   33.5944   27.4347 H   0  0  0  0  0  0  0  0  0  0  0  0
   46.6841   34.2505   27.7312 H   0  0  0  0  0  0  0  0  0  0  0  0
   46.5335   32.1843   25.5160 H   0  0  0  0  0  0  0  0  0  0  0  0
   46.8965   33.9807   23.9979 H   0  0  0  0  0  0  0  0  0  0  0  0
   46.2109   36.2485   24.5613 H   0  0  0  0  0  0  0  0  0  0  0  0
   45.8719   35.7447   26.2812 H   0  0  0  0  0  0  0  0  0  0  0  0
   48.3806   35.5436   26.5771 H   0  0  0  0  0  0  0  0  0  0  0  0
   48.5141   36.4211   24.9820 H   0  0  0  0  0  0  0  0  0  0  0  0
   48.3830   38.3479   26.0549 H   0  0  0  0  0  0  0  0  0  0  0  0
   46.7060   37.8714   26.5955 H   0  0  0  0  0  0  0  0  0  0  0  0
   49.3338   37.5656   28.0765 H   0  0  0  0  0  0  0  0  0  0  0  0
   47.8156   38.4625   28.5506 H   0  0  0  0  0  0  0  0  0  0  0  0
   46.7473   36.5842   29.2660 H   0  0  0  0  0  0  0  0  0  0  0  0
   47.6435   35.5077   28.1215 H   0  0  0  0  0  0  0  0  0  0  0  0
   49.5488   35.4174   29.4973 H   0  0  0  0  0  0  0  0  0  0  0  0
   49.0240   36.8794   30.4438 H   0  0  0  0  0  0  0  0  0  0  0  0
   47.1470   34.6038   30.5559 H   0  0  0  0  0  0  0  0  0  0  0  0
   48.7909   34.3047   31.2876 H   0  0  0  0  0  0  0  0  0  0  0  0
  1  2  1  0
  2  3  1  0
  3  4  1  0
  4  5  1  0
  5  6  1  0
  6  7  2  0
  7  8  1  0
  8  9  1  0
  9 10  2  0
 10 11  1  0
 11 12  1  0
 12 13  1  0
 13 14  1  0
 14 15  1  0
 15 16  1  0
 16 17  1  0
 17 18  1  0
 18 19  2  0
 18 20  1  0
  1 21  1  0
  1 22  1  0
  1 23  1  0
  2 24  1  0
  2 25  1  0
  3 26  1  0
  3 27  1  0
  4 28  1  0
  4 29  1  0
  5 30  1  0
  5 31  1  0
  6 32  1  0
  7 33  1  0
  8 34  1  0
  8 35  1  0
  9 36  1  0
 10 37  1  0
 11 38  1  0
 11 39  1  0
 12 40  1  0
 12 41  1  0
 13 42  1  0
 13 43  1  0
 14 44  1  0
 14 45  1  0
 15 46  1  0
 15 47  1  0
 16 48  1  0
 16 49  1  0
 17 50  1  0
 17 51  1  0
M  CHG  1  20  -1
M  END
>  <meeko>  (4) 
{"is_sidechain": [false], "free_energy": -5.419, "intermolecular_energy": -9.13, "internal_energy": -2.458}

$$$$
linoleate_run01
     RDKit          3D

 51 50  0  0  0  0  0  0  0  0999 V2000
   49.9920   33.0730   25.4650 C   0  0  0  0  0  0  0  0  0  0  0  0
   49.1890   31.9930   24.7560 C   0  0  0  0  0  0  0  0  0  0  0  0
   47.8280   31.7210   25.4000 C   0  0  0  0  0  0  0  0  0  0  0  0
   47.6620   32.3860   26.7700 C   0  0  0  0  0  0  0  0  0  0  0  0
   46.3700   33.2100   26.8320 C   0  0  0  0  0  0  0  0  0  0  0  0
   46.0070   33.9950   25.6000 C   0  0  0  0  0  0  0  0  0  0  0  0
   46.5500   35.1490   25.1800 C   0  0  0  0  0  0  0  0  0  0  0  0
   47.6500   35.8630   25.9130 C   0  0  0  0  0  0  0  0  0  0  0  0
   47.4200   37.3450   25.9420 C   0  0  0  0  0  0  0  0  0  0  0  0
   47.7610   38.1320   26.9740 C   0  0  0  0  0  0  0  0  0  0  0  0
   48.4170   37.6260   28.2270 C   0  0  0  0  0  0  0  0  0  0  0  0
   47.4150   37.0910   29.2560 C   0  0  0  0  0  0  0  0  0  0  0  0
   47.9900   35.9800   30.1420 C   0  0  0  0  0  0  0  0  0  0  0  0
   48.6220   34.8340   29.3440 C   0  0  0  0  0  0  0  0  0  0  0  0
   48.8240   33.5600   30.1680 C   0  0  0  0  0  0  0  0  0  0  0  0
   47.7910   33.4620   31.2970 C   0  0  0  0  0  0  0  0  0  0  0  0
   48.4330   33.1670   32.6510 C   0  0  0  0  0  0  0  0  0  0  0  0
   48.2710   34.2940   33.6430 C   0  0  0  0  0  0  0  0  0  0  0  0
   47.6070   35.3050   33.4810 O   0  0  0  0  0  0  0  0  0  0  0  0
   48.9550   34.0150   34.7820 O   0  0  0  0  0  0  0  0  0  0  0  0
   49.8971   32.9454   26.5535 H   0  0  0  0  0  0  0  0  0  0  0  0
   51.0505   32.9914   25.1771 H   0  0  0  0  0  0  0  0  0  0  0  0
   49.6090   34.0632   25.1771 H   0  0  0  0  0  0  0  0  0  0  0  0
   49.0246   32.3085   23.7151 H   0  0  0  0  0  0  0  0  0  0  0  0
   49.7702   31.0615   24.8234 H   0  0  0  0  0  0  0  0  0  0  0  0
   47.0426   32.1009   24.7301 H   0  0  0  0  0  0  0  0  0  0  0  0
   47.7518   30.6345   25.5539 H   0  0  0  0  0  0  0  0  0  0  0  0
   47.6285   31.6068   27.5457 H   0  0  0  0  0  0  0  0  0  0  0  0
   48.5146   33.0609   26.9359 H   0  0  0  0  0  0  0  0  0  0  0  0
   45.5423   32.5162   27.0406 H   0  0  0  0  0  0  0  0  0  0  0  0
   46.5464   33.9644   27.6129 H   0  0  0  0  0  0  0  0  0  0  0  0
   45.2064   33.5759   24.9728 H   0  0  0  0  0  0  0  0  0  0  0  0
   46.1691   35.5954   24.2496 H   0  0  0  0  0  0  0  0  0  0  0  0
   47.6932   35.4878   26.9461 H   0  0  0  0  0  0  0  0  0  0  0  0
   48.5966   35.6710   25.3866 H   0  0  0  0  0  0  0  0  0  0  0  0
   46.9447   37.8133   25.0675 H   0  0  0  0  0  0  0  0  0  0  0  0
   47.5481   39.2085   26.8981 H   0  0  0  0  0  0  0  0  0  0  0  0
   49.1086   36.8143   27.9569 H   0  0  0  0  0  0  0  0  0  0  0  0
   48.9402   38.4758   28.6896 H   0  0  0  0  0  0  0  0  0  0  0  0
   47.0992   37.9239   29.9014 H   0  0  0  0  0  0  0  0  0  0  0  0
   46.5730   36.6580   28.6960 H   0  0  0  0  0  0  0  0  0  0  0  0
   48.7601   36.4172   30.7946 H   0  0  0  0  0  0  0  0  0  0  0  0
   47.1532   35.5548   30.7156 H   0  0  0  0  0  0  0  0  0  0  0  0
   47.9664   34.5986   28.4927 H   0  0  0  0  0  0  0  0  0  0  0  0
   49.6171   35.1732   29.0204 H   0  0  0  0  0  0  0  0  0  0  0  0
   48.7195   32.6856   29.5088 H   0  0  0  0  0  0  0  0  0  0  0  0
   49.8284   33.5895   30.6156 H   0  0  0  0  0  0  0  0  0  0  0  0
   47.2492   34.4170   31.3637 H   0  0  0  0  0  0  0  0  0  0  0  0
   47.1130   32.6291   31.0592 H   0  0  0  0  0  0  0  0  0  0  0  0
   47.9669   32.2628   33.0696 H   0  0  0  0  0  0  0  0  0  0  0  0
   49.5114   33.0338   32.4800 H   0  0  0  0  0  0  0  0  0  0  0  0
  1  2  1  0
  2  3  1  0
  3  4  1  0
  4  5  1  0
  5  6  1  0
  6  7  2  0
  7  8  1  0
  8  9  1  0
  9 10  2  0
 10 11  1  0
 11 12  1  0
 12 13  1  0
 13 14  1  0
 14 15  1  0
 15 16  1  0
 16 17  1  0
 17 18  1  0
 18 19  2  0
 18 20  1  0
  1 21  1  0
  1 22  1  0
  1 23  1  0
  2 24  1  0
  2 25  1  0
  3 26  1  0
  3 27  1  0
  4 28  1  0
  4 29  1  0
  5 30  1  0
  5 31  1  0
  6 32  1  0
  7 33  1  0
  8 34  1  0
  8 35  1  0
  9 36  1  0
 10 37  1  0
 11 38  1  0
 11 39  1  0
 12 40  1  0
 12 41  1  0
 13 42  1  0
 13 43  1  0
 14 44  1  0
 14 45  1  0
 15 46  1  0
 15 47  1  0
 16 48  1  0
 16 49  1  0
 17 50  1  0
 17 51  1  0
M  CHG  1  20  -1
M  END
>  <meeko>  (5) 
{"is_sidechain": [false], "free_energy": -5.41, "intermolecular_energy": -9.507, "internal_energy": -2.066}

$$$$
linoleate_run01
     RDKit          3D

 51 50  0  0  0  0  0  0  0  0999 V2000
   49.9660   31.4720   24.4110 C   0  0  0  0  0  0  0  0  0  0  0  0
   50.4400   32.7000   25.1740 C   0  0  0  0  0  0  0  0  0  0  0  0
   49.3640   33.3150   26.0710 C   0  0  0  0  0  0  0  0  0  0  0  0
   47.9500   32.8240   25.7460 C   0  0  0  0  0  0  0  0  0  0  0  0
   46.8900   33.7530   26.3510 C   0  0  0  0  0  0  0  0  0  0  0  0
   46.4480   34.9170   25.5060 C   0  0  0  0  0  0  0  0  0  0  0  0
   46.9440   36.1650   25.5140 C   0  0  0  0  0  0  0  0  0  0  0  0
   48.0660   36.6050   26.4100 C   0  0  0  0  0  0  0  0  0  0  0  0
   47.5620   37.4280   27.5590 C   0  0  0  0  0  0  0  0  0  0  0  0
   47.5510   37.0040   28.8310 C   0  0  0  0  0  0  0  0  0  0  0  0
   48.0450   35.6530   29.2640 C   0  0  0  0  0  0  0  0  0  0  0  0
   48.9770   35.7140   30.4790 C   0  0  0  0  0  0  0  0  0  0  0  0
   48.2780   35.3690   31.7990 C   0  0  0  0  0  0  0  0  0  0  0  0
   48.9290   34.1980   32.5420 C   0  0  0  0  0  0  0  0  0  0  0  0
   48.3930   34.0080   33.9630 C   0  0  0  0  0  0  0  0  0  0  0  0
   47.6970   32.6510   34.1150 C   0  0  0  0  0  0  0  0  0  0  0  0
   46.3410   32.7650   34.8110 C   0  0  0  0  0  0  0  0  0  0  0  0
   45.3330   33.5620   34.0200 C   0  0  0  0  0  0  0  0  0  0  0  0
   44.9740   33.3350   32.8750 O   0  0  0  0  0  0  0  0  0  0  0  0
   44.8400   34.5750   34.7780 O   0  0  0  0  0  0  0  0  0  0  0  0
   49.6645   30.6909   25.1244 H   0  0  0  0  0  0  0  0  0  0  0  0
   49.1075   31.7421   23.7785 H   0  0  0  0  0  0  0  0  0  0  0  0
   50.7833   31.0952   23.7785 H   0  0  0  0  0  0  0  0  0  0  0  0
   51.2942   32.4103   25.8037 H   0  0  0  0  0  0  0  0  0  0  0  0
   50.7110   33.4602   24.4266 H   0  0  0  0  0  0  0  0  0  0  0  0
   49.5914   33.0571   27.1159 H   0  0  0  0  0  0  0  0  0  0  0  0
   49.3789   34.4014   25.8991 H   0  0  0  0  0  0  0  0  0  0  0  0
   47.8217   32.7957   24.6539 H   0  0  0  0  0  0  0  0  0  0  0  0
   47.8213   31.8200   26.1766 H   0  0  0  0  0  0  0  0  0  0  0  0
   46.0005   33.1445   26.5712 H   0  0  0  0  0  0  0  0  0  0  0  0
   47.3699   34.2025   27.2328 H   0  0  0  0  0  0  0  0  0  0  0  0
   45.6253   34.7238   24.8019 H   0  0  0  0  0  0  0  0  0  0  0  0
   46.5051   36.9042   24.8278 H   0  0  0  0  0  0  0  0  0  0  0  0
   48.5778   35.7151   26.8052 H   0  0  0  0  0  0  0  0  0  0  0  0
   48.7570   37.2241   25.8190 H   0  0  0  0  0  0  0  0  0  0  0  0
   47.1796   38.4371   27.3455 H   0  0  0  0  0  0  0  0  0  0  0  0
   47.1580   37.6840   29.6011 H   0  0  0  0  0  0  0  0  0  0  0  0
   47.1765   35.0284   29.5201 H   0  0  0  0  0  0  0  0  0  0  0  0
   48.6233   35.2322   28.4282 H   0  0  0  0  0  0  0  0  0  0  0  0
   49.8002   35.0011   30.3234 H   0  0  0  0  0  0  0  0  0  0  0  0
   49.3356   36.7506   30.5621 H   0  0  0  0  0  0  0  0  0  0  0  0
   48.3060   36.2547   32.4507 H   0  0  0  0  0  0  0  0  0  0  0  0
   47.2491   35.0671   31.5534 H   0  0  0  0  0  0  0  0  0  0  0  0
   48.7417   33.2759   31.9722 H   0  0  0  0  0  0  0  0  0  0  0  0
   50.0024   34.4229   32.6266 H   0  0  0  0  0  0  0  0  0  0  0  0
   49.2312   34.0631   34.6732 H   0  0  0  0  0  0  0  0  0  0  0  0
   47.6590   34.8013   34.1678 H   0  0  0  0  0  0  0  0  0  0  0  0
   47.5454   32.2181   33.1152 H   0  0  0  0  0  0  0  0  0  0  0  0
   48.3406   32.0125   34.7380 H   0  0  0  0  0  0  0  0  0  0  0  0
   45.9415   31.7520   34.9667 H   0  0  0  0  0  0  0  0  0  0  0  0
   46.5043   33.2948   35.7611 H   0  0  0  0  0  0  0  0  0  0  0  0
  1  2  1  0
  2  3  1  0
  3  4  1  0
  4  5  1  0
  5  6  1  0
  6  7  2  0
  7  8  1  0
  8  9  1  0
  9 10  2  0
 10 11  1  0
 11 12  1  0
 12 13  1  0
 13 14  1  0
 14 15  1  0
 15 16  1  0
 16 17  1  0
 17 18  1  0
 18 19  2  0
 18 20  1  0
  1 21  1  0
  1 22  1  0
  1 23  1  0
  2 24  1  0
  2 25  1  0
  3 26  1  0
  3 27  1  0
  4 28  1  0
  4 29  1  0
  5 30  1  0
  5 31  1  0
  6 32  1  0
  7 33  1  0
  8 34  1  0
  8 35  1  0
  9 36  1  0
 10 37  1  0
 11 38  1  0
 11 39  1  0
 12 40  1  0
 12 41  1  0
 13 42  1  0
 13 43  1  0
 14 44  1  0
 14 45  1  0
 15 46  1  0
 15 47  1  0
 16 48  1  0
 16 49  1  0
 17 50  1  0
 17 51  1  0
M  CHG  1  20  -1
M  END
>  <meeko>  (6) 
{"is_sidechain": [false], "free_energy": -5.385, "intermolecular_energy": -10.137, "internal_energy": -1.39}

$$$$
linoleate_run01
     RDKit          3D

 51 50  0  0  0  0  0  0  0  0999 V2000
   47.3010   32.3000   27.9690 C   0  0  0  0  0  0  0  0  0  0  0  0
   46.7300   33.6310   27.5040 C   0  0  0  0  0  0  0  0  0  0  0  0
   46.1070   33.5740   26.1080 C   0  0  0  0  0  0  0  0  0  0  0  0
   46.5390   34.7330   25.2040 C   0  0  0  0  0  0  0  0  0  0  0  0
   47.5770   35.6200   25.9010 C   0  0  0  0  0  0  0  0  0  0  0  0
   47.2710   37.0920   25.9750 C   0  0  0  0  0  0  0  0  0  0  0  0
   47.6080   37.9460   26.9540 C   0  0  0  0  0  0  0  0  0  0  0  0
   48.3750   37.5410   28.1810 C   0  0  0  0  0  0  0  0  0  0  0  0
   47.4750   36.9330   29.2160 C   0  0  0  0  0  0  0  0  0  0  0  0
   47.8700   35.9900   30.0850 C   0  0  0  0  0  0  0  0  0  0  0  0
   49.2630   35.4280   30.1300 C   0  0  0  0  0  0  0  0  0  0  0  0
   49.3100   33.9770   30.6250 C   0  0  0  0  0  0  0  0  0  0  0  0
   48.1150   33.5980   31.5050 C   0  0  0  0  0  0  0  0  0  0  0  0
   48.0790   32.1100   31.8700 C   0  0  0  0  0  0  0  0  0  0  0  0
   46.6610   31.5650   32.0580 C   0  0  0  0  0  0  0  0  0  0  0  0
   46.3400   31.3580   33.5430 C   0  0  0  0  0  0  0  0  0  0  0  0
   45.1190   32.1600   33.9920 C   0  0  0  0  0  0  0  0  0  0  0  0
   45.4780   33.4900   34.6110 C   0  0  0  0  0  0  0  0  0  0  0  0
   44.7450   34.4620   34.7030 O   0  0  0  0  0  0  0  0  0  0  0  0
   46.7460   33.4530   35.0930 O   0  0  0  0  0  0  0  0  0  0  0  0
   47.3136   32.2705   29.0685 H   0  0  0  0  0  0  0  0  0  0  0  0
   46.6757   31.4794   27.5874 H   0  0  0  0  0  0  0  0  0  0  0  0
   48.3265   32.1876   27.5874 H   0  0  0  0  0  0  0  0  0  0  0  0
   45.9551   33.9459   28.2184 H   0  0  0  0  0  0  0  0  0  0  0  0
   47.5673   34.3428   27.4556 H   0  0  0  0  0  0  0  0  0  0  0  0
   46.4055   32.6289   25.6307 H   0  0  0  0  0  0  0  0  0  0  0  0
   45.0168   33.6482   26.2344 H   0  0  0  0  0  0  0  0  0  0  0  0
   46.9770   34.3248   24.2813 H   0  0  0  0  0  0  0  0  0  0  0  0
   45.6544   35.3452   24.9744 H   0  0  0  0  0  0  0  0  0  0  0  0
   47.6917   35.2516   26.9311 H   0  0  0  0  0  0  0  0  0  0  0  0
   48.4828   35.5448   25.2814 H   0  0  0  0  0  0  0  0  0  0  0  0
   46.7072   37.5158   25.1309 H   0  0  0  0  0  0  0  0  0  0  0  0
   47.3065   38.9990   26.8527 H   0  0  0  0  0  0  0  0  0  0  0  0
   49.1413   36.8048   27.8967 H   0  0  0  0  0  0  0  0  0  0  0  0
   48.8376   38.4413   28.6117 H   0  0  0  0  0  0  0  0  0  0  0  0
   46.4323   37.2799   29.2652 H   0  0  0  0  0  0  0  0  0  0  0  0
   47.1323   35.6066   30.8053 H   0  0  0  0  0  0  0  0  0  0  0  0
   49.6890   35.4663   29.1166 H   0  0  0  0  0  0  0  0  0  0  0  0
   49.8397   36.0366   30.8420 H   0  0  0  0  0  0  0  0  0  0  0  0
   49.3250   33.3101   29.7504 H   0  0  0  0  0  0  0  0  0  0  0  0
   50.2149   33.8723   31.2416 H   0  0  0  0  0  0  0  0  0  0  0  0
   48.1658   34.1844   32.4343 H   0  0  0  0  0  0  0  0  0  0  0  0
   47.2038   33.8141   30.9279 H   0  0  0  0  0  0  0  0  0  0  0  0
   48.5673   31.5414   31.0648 H   0  0  0  0  0  0  0  0  0  0  0  0
   48.6002   31.9987   32.8323 H   0  0  0  0  0  0  0  0  0  0  0  0
   45.9421   32.2801   31.6316 H   0  0  0  0  0  0  0  0  0  0  0  0
   46.5902   30.5934   31.5471 H   0  0  0  0  0  0  0  0  0  0  0  0
   46.1443   30.2896   33.7166 H   0  0  0  0  0  0  0  0  0  0  0  0
   47.2047   31.7090   34.1253 H   0  0  0  0  0  0  0  0  0  0  0  0
   44.4790   32.3429   33.1162 H   0  0  0  0  0  0  0  0  0  0  0  0
   44.6035   31.5682   34.7628 H   0  0  0  0  0  0  0  0  0  0  0  0
  1  2  1  0
  2  3  1  0
  3  4  1  0
  4  5  1  0
  5  6  1  0
  6  7  2  0
  7  8  1  0
  8  9  1  0
  9 10  2  0
 10 11  1  0
 11 12  1  0
 12 13  1  0
 13 14  1  0
 14 15  1  0
 15 16  1  0
 16 17  1  0
 17 18  1  0
 18 19  2  0
 18 20  1  0
  1 21  1  0
  1 22  1  0
  1 23  1  0
  2 24  1  0
  2 25  1  0
  3 26  1  0
  3 27  1  0
  4 28  1  0
  4 29  1  0
  5 30  1  0
  5 31  1  0
  6 32  1  0
  7 33  1  0
  8 34  1  0
  8 35  1  0
  9 36  1  0
 10 37  1  0
 11 38  1  0
 11 39  1  0
 12 40  1  0
 12 41  1  0
 13 42  1  0
 13 43  1  0
 14 44  1  0
 14 45  1  0
 15 46  1  0
 15 47  1  0
 16 48  1  0
 16 49  1  0
 17 50  1  0
 17 51  1  0
M  CHG  1  20  -1
M  END
>  <meeko>  (7) 
{"is_sidechain": [false], "free_energy": -5.345, "intermolecular_energy": -9.482, "internal_energy": -1.972}

$$$$
linoleate_run01
     RDKit          3D

 51 50  0  0  0  0  0  0  0  0999 V2000
   46.5020   31.7470   29.6910 C   0  0  0  0  0  0  0  0  0  0  0  0
   47.0860   32.7100   28.6690 C   0  0  0  0  0  0  0  0  0  0  0  0
   46.1380   33.0180   27.5080 C   0  0  0  0  0  0  0  0  0  0  0  0
   46.6800   32.5720   26.1470 C   0  0  0  0  0  0  0  0  0  0  0  0
   47.3720   33.7330   25.4210 C   0  0  0  0  0  0  0  0  0  0  0  0
   46.5580   34.9810   25.2090 C   0  0  0  0  0  0  0  0  0  0  0  0
   46.8780   36.2340   25.5710 C   0  0  0  0  0  0  0  0  0  0  0  0
   48.1550   36.5920   26.2780 C   0  0  0  0  0  0  0  0  0  0  0  0
   47.9390   37.6840   27.2840 C   0  0  0  0  0  0  0  0  0  0  0  0
   47.7330   37.4630   28.5910 C   0  0  0  0  0  0  0  0  0  0  0  0
   47.6940   36.0940   29.2090 C   0  0  0  0  0  0  0  0  0  0  0  0
   49.0410   35.6630   29.8010 C   0  0  0  0  0  0  0  0  0  0  0  0
   49.0180   35.5310   31.3280 C   0  0  0  0  0  0  0  0  0  0  0  0
   47.6370   35.7920   31.9380 C   0  0  0  0  0  0  0  0  0  0  0  0
   47.0490   34.5730   32.6530 C   0  0  0  0  0  0  0  0  0  0  0  0
   45.7980   34.9520   33.4550 C   0  0  0  0  0  0  0  0  0  0  0  0
   45.2850   36.3490   33.1100 C   0  0  0  0  0  0  0  0  0  0  0  0
   43.9180   36.6370   33.6820 C   0  0  0  0  0  0  0  0  0  0  0  0
   42.8570   36.1910   33.2730 O   0  0  0  0  0  0  0  0  0  0  0  0
   44.0260   37.4560   34.7600 O   0  0  0  0  0  0  0  0  0  0  0  0
   46.7226   32.1107   30.7054 H   0  0  0  0  0  0  0  0  0  0  0  0
   45.4125   31.6826   29.5534 H   0  0  0  0  0  0  0  0  0  0  0  0
   46.9485   30.7511   29.5534 H   0  0  0  0  0  0  0  0  0  0  0  0
   47.3294   33.6536   29.1793 H   0  0  0  0  0  0  0  0  0  0  0  0
   47.9756   32.2257   28.2401 H   0  0  0  0  0  0  0  0  0  0  0  0
   45.1841   32.5013   27.6900 H   0  0  0  0  0  0  0  0  0  0  0  0
   46.0173   34.1106   27.4678 H   0  0  0  0  0  0  0  0  0  0  0  0
   47.4056   31.7592   26.2980 H   0  0  0  0  0  0  0  0  0  0  0  0
   45.8365   32.2275   25.5307 H   0  0  0  0  0  0  0  0  0  0  0  0
   48.2602   34.0104   26.0076 H   0  0  0  0  0  0  0  0  0  0  0  0
   47.5872   33.3541   24.4110 H   0  0  0  0  0  0  0  0  0  0  0  0
   45.5915   34.8522   24.6999 H   0  0  0  0  0  0  0  0  0  0  0  0
   46.1679   37.0410   25.3377 H   0  0  0  0  0  0  0  0  0  0  0  0
   48.5393   35.7005   26.7952 H   0  0  0  0  0  0  0  0  0  0  0  0
   48.8756   36.9509   25.5284 H   0  0  0  0  0  0  0  0  0  0  0  0
   47.9502   38.7253   26.9296 H   0  0  0  0  0  0  0  0  0  0  0  0
   47.5842   38.3331   29.2473 H   0  0  0  0  0  0  0  0  0  0  0  0
   46.9424   36.0937   30.0122 H   0  0  0  0  0  0  0  0  0  0  0  0
   47.4433   35.3805   28.4102 H   0  0  0  0  0  0  0  0  0  0  0  0
   49.3158   34.6888   29.3705 H   0  0  0  0  0  0  0  0  0  0  0  0
   49.7717   36.4469   29.5528 H   0  0  0  0  0  0  0  0  0  0  0  0
   49.3305   34.5107   31.5950 H   0  0  0  0  0  0  0  0  0  0  0  0
   49.7016   36.2927   31.7312 H   0  0  0  0  0  0  0  0  0  0  0  0
   47.7261   36.6132   32.6645 H   0  0  0  0  0  0  0  0  0  0  0  0
   46.9577   36.0421   31.1097 H   0  0  0  0  0  0  0  0  0  0  0  0
   46.7792   33.8134   31.9046 H   0  0  0  0  0  0  0  0  0  0  0  0
   47.8039   34.1794   33.3495 H   0  0  0  0  0  0  0  0  0  0  0  0
   45.0049   34.2212   33.2384 H   0  0  0  0  0  0  0  0  0  0  0  0
   46.0697   34.9487   34.5209 H   0  0  0  0  0  0  0  0  0  0  0  0
   45.9939   37.0901   33.5077 H   0  0  0  0  0  0  0  0  0  0  0  0
   45.2003   36.4056   32.0147 H   0  0  0  0  0  0  0  0  0  0  0  0
  1  2  1  0
  2  3  1  0
  3  4  1  0
  4  5  1  0
  5  6  1  0
  6  7  2  0
  7  8  1  0
  8  9  1  0
  9 10  2  0
 10 11  1  0
 11 12  1  0
 12 13  1  0
 13 14  1  0
 14 15  1  0
 15 16  1  0
 16 17  1  0
 17 18  1  0
 18 19  2  0
 18 20  1  0
  1 21  1  0
  1 22  1  0
  1 23  1  0
  2 24  1  0
  2 25  1  0
  3 26  1  0
  3 27  1  0
  4 28  1  0
  4 29  1  0
  5 30  1  0
  5 31  1  0
  6 32  1  0
  7 33  1  0
  8 34  1  0
  8 35  1  0
  9 36  1  0
 10 37  1  0
 11 38  1  0
 11 39  1  0
 12 40  1  0
 12 41  1  0
 13 42  1  0
 13 43  1  0
 14 44  1  0
 14 45  1  0
 15 46  1  0
 15 47  1  0
 16 48  1  0
 16 49  1  0
 17 50  1  0
 17 51  1  0
M  CHG  1  20  -1
M  END
>  <meeko>  (8) 
{"is_sidechain": [false], "free_energy": -5.315, "intermolecular_energy": -9.617, "internal_energy": -1.782}

$$$$
linoleate_run01
     RDKit          3D

 51 50  0  0  0  0  0  0  0  0999 V2000
   48.2560   32.3880   29.0970 C   0  0  0  0  0  0  0  0  0  0  0  0
   47.2630   33.4060   28.5570 C   0  0  0  0  0  0  0  0  0  0  0  0
   46.0930   32.7770   27.7990 C   0  0  0  0  0  0  0  0  0  0  0  0
   46.5250   31.9980   26.5540 C   0  0  0  0  0  0  0  0  0  0  0  0
   47.0650   32.9410   25.4720 C   0  0  0  0  0  0  0  0  0  0  0  0
   46.2160   34.1350   25.1270 C   0  0  0  0  0  0  0  0  0  0  0  0
   46.5390   35.4310   25.2590 C   0  0  0  0  0  0  0  0  0  0  0  0
   47.8590   35.9050   25.7980 C   0  0  0  0  0  0  0  0  0  0  0  0
   47.8610   37.3880   26.0210 C   0  0  0  0  0  0  0  0  0  0  0  0
   48.0870   37.9620   27.2130 C   0  0  0  0  0  0  0  0  0  0  0  0
   48.3660   37.1900   28.4710 C   0  0  0  0  0  0  0  0  0  0  0  0
   47.1290   37.0200   29.3610 C   0  0  0  0  0  0  0  0  0  0  0  0
   47.4590   36.5070   30.7660 C   0  0  0  0  0  0  0  0  0  0  0  0
   48.7760   35.7260   30.8330 C   0  0  0  0  0  0  0  0  0  0  0  0
   48.9110   34.8700   32.0950 C   0  0  0  0  0  0  0  0  0  0  0  0
   47.6830   35.0250   33.0010 C   0  0  0  0  0  0  0  0  0  0  0  0
   47.1370   33.6800   33.4780 C   0  0  0  0  0  0  0  0  0  0  0  0
   45.6710   33.7280   33.8350 C   0  0  0  0  0  0  0  0  0  0  0  0
   45.1980   34.1480   34.8800 O   0  0  0  0  0  0  0  0  0  0  0  0
   44.9240   33.2580   32.8040 O   0  0  0  0  0  0  0  0  0  0  0  0
   48.2383   32.4062   30.1967 H   0  0  0  0  0  0  0  0  0  0  0  0
   47.9810   31.3837   28.7424 H   0  0  0  0  0  0  0  0  0  0  0  0
   49.2668   32.6380   28.7424 H   0  0  0  0  0  0  0  0  0  0  0  0
   46.8599   33.9815   29.4033 H   0  0  0  0  0  0  0  0  0  0  0  0
   47.8075   34.0399   27.8417 H   0  0  0  0  0  0  0  0  0  0  0  0
   45.5681   32.0879   28.4770 H   0  0  0  0  0  0  0  0  0  0  0  0
   45.4457   33.5992   27.4598 H   0  0  0  0  0  0  0  0  0  0  0  0
   47.3129   31.2830   26.8331 H   0  0  0  0  0  0  0  0  0  0  0  0
   45.6484   31.4697   26.1510 H   0  0  0  0  0  0  0  0  0  0  0  0
   48.0416   33.3146   25.8134 H   0  0  0  0  0  0  0  0  0  0  0  0
   47.0981   32.3364   24.5537 H   0  0  0  0  0  0  0  0  0  0  0  0
   45.2166   33.9210   24.7202 H   0  0  0  0  0  0  0  0  0  0  0  0
   45.7983   36.1860   24.9566 H   0  0  0  0  0  0  0  0  0  0  0  0
   48.0568   35.3994   26.7547 H   0  0  0  0  0  0  0  0  0  0  0  0
   48.6390   35.6659   25.0602 H   0  0  0  0  0  0  0  0  0  0  0  0
   47.6662   38.0425   25.1587 H   0  0  0  0  0  0  0  0  0  0  0  0
   48.0668   39.0602   27.2721 H   0  0  0  0  0  0  0  0  0  0  0  0
   48.7375   36.1923   28.1941 H   0  0  0  0  0  0  0  0  0  0  0  0
   49.1083   37.7612   29.0478 H   0  0  0  0  0  0  0  0  0  0  0  0
   46.6291   37.9954   29.4540 H   0  0  0  0  0  0  0  0  0  0  0  0
   46.4845   36.2678   28.8827 H   0  0  0  0  0  0  0  0  0  0  0  0
   47.5298   37.3696   31.4448 H   0  0  0  0  0  0  0  0  0  0  0  0
   46.6550   35.8150   31.0571 H   0  0  0  0  0  0  0  0  0  0  0  0
   48.8347   35.0653   29.9555 H   0  0  0  0  0  0  0  0  0  0  0  0
   49.5911   36.4644   30.8524 H   0  0  0  0  0  0  0  0  0  0  0  0
   49.0117   33.8140   31.8038 H   0  0  0  0  0  0  0  0  0  0  0  0
   49.7996   35.2042   32.6506 H   0  0  0  0  0  0  0  0  0  0  0  0
   47.9657   35.6231   33.8798 H   0  0  0  0  0  0  0  0  0  0  0  0
   46.8938   35.5181   32.4145 H   0  0  0  0  0  0  0  0  0  0  0  0
   47.2777   32.9408   32.6756 H   0  0  0  0  0  0  0  0  0  0  0  0
   47.6877   33.4079   34.3905 H   0  0  0  0  0  0  0  0  0  0  0  0
  1  2  1  0
  2  3  1  0
  3  4  1  0
  4  5  1  0
  5  6  1  0
  6  7  2  0
  7  8  1  0
  8  9  1  0
  9 10  2  0
 10 11  1  0
 11 12  1  0
 12 13  1  0
 13 14  1  0
 14 15  1  0
 15 16  1  0
 16 17  1  0
 17 18  1  0
 18 19  2  0
 18 20  1  0
  1 21  1  0
  1 22  1  0
  1 23  1  0
  2 24  1  0
  2 25  1  0
  3 26  1  0
  3 27  1  0
  4 28  1  0
  4 29  1  0
  5 30  1  0
  5 31  1  0
  6 32  1  0
  7 33  1  0
  8 34  1  0
  8 35  1  0
  9 36  1  0
 10 37  1  0
 11 38  1  0
 11 39  1  0
 12 40  1  0
 12 41  1  0
 13 42  1  0
 13 43  1  0
 14 44  1  0
 14 45  1  0
 15 46  1  0
 15 47  1  0
 16 48  1  0
 16 49  1  0
 17 50  1  0
 17 51  1  0
M  CHG  1  20  -1
M  END
>  <meeko>  (9) 
{"is_sidechain": [false], "free_energy": -5.307, "intermolecular_energy": -9.411, "internal_energy": -1.974}

$$$$
linoleate_run01
     RDKit          3D

 51 50  0  0  0  0  0  0  0  0999 V2000
   46.0890   30.2570   33.2210 C   0  0  0  0  0  0  0  0  0  0  0  0
   45.1460   31.4370   33.4000 C   0  0  0  0  0  0  0  0  0  0  0  0
   45.6090   32.4340   34.4650 C   0  0  0  0  0  0  0  0  0  0  0  0
   45.3570   33.8940   34.0800 C   0  0  0  0  0  0  0  0  0  0  0  0
   46.5850   34.5030   33.3900 C   0  0  0  0  0  0  0  0  0  0  0  0
   47.9140   33.8600   33.6810 C   0  0  0  0  0  0  0  0  0  0  0  0
   49.1340   34.3570   33.4200 C   0  0  0  0  0  0  0  0  0  0  0  0
   49.3640   35.6900   32.7670 C   0  0  0  0  0  0  0  0  0  0  0  0
   49.9090   35.5350   31.3780 C   0  0  0  0  0  0  0  0  0  0  0  0
   49.1730   35.6860   30.2670 C   0  0  0  0  0  0  0  0  0  0  0  0
   47.7100   36.0300   30.2760 C   0  0  0  0  0  0  0  0  0  0  0  0
   47.3470   37.1390   29.2820 C   0  0  0  0  0  0  0  0  0  0  0  0
   48.4640   37.4440   28.2790 C   0  0  0  0  0  0  0  0  0  0  0  0
   47.9550   38.0760   26.9790 C   0  0  0  0  0  0  0  0  0  0  0  0
   47.9970   37.1210   25.7830 C   0  0  0  0  0  0  0  0  0  0  0  0
   46.8600   36.0940   25.8550 C   0  0  0  0  0  0  0  0  0  0  0  0
   47.3690   34.6550   25.7960 C   0  0  0  0  0  0  0  0  0  0  0  0
   47.4610   34.0020   27.1540 C   0  0  0  0  0  0  0  0  0  0  0  0
   46.5290   33.7830   27.9120 O   0  0  0  0  0  0  0  0  0  0  0  0
   48.7460   33.6530   27.4190 O   0  0  0  0  0  0  0  0  0  0  0  0
   46.3925   29.8772   34.2077 H   0  0  0  0  0  0  0  0  0  0  0  0
   45.5766   29.4595   32.6629 H   0  0  0  0  0  0  0  0  0  0  0  0
   46.9798   30.5809   32.6629 H   0  0  0  0  0  0  0  0  0  0  0  0
   45.0651   31.9666   32.4393 H   0  0  0  0  0  0  0  0  0  0  0  0
   44.1805   31.0308   33.7358 H   0  0  0  0  0  0  0  0  0  0  0  0
   45.0695   32.2216   35.3998 H   0  0  0  0  0  0  0  0  0  0  0  0
   46.6964   32.3099   34.5757 H   0  0  0  0  0  0  0  0  0  0  0  0
   44.4987   33.9416   33.3936 H   0  0  0  0  0  0  0  0  0  0  0  0
   45.1512   34.4666   34.9964 H   0  0  0  0  0  0  0  0  0  0  0  0
   46.4187   34.4471   32.3041 H   0  0  0  0  0  0  0  0  0  0  0  0
   46.6646   35.5240   33.7916 H   0  0  0  0  0  0  0  0  0  0  0  0
   47.8827   32.8712   34.1618 H   0  0  0  0  0  0  0  0  0  0  0  0
   50.0118   33.7558   33.6994 H   0  0  0  0  0  0  0  0  0  0  0  0
   48.4089   36.2334   32.7176 H   0  0  0  0  0  0  0  0  0  0  0  0
   50.1001   36.2456   33.3666 H   0  0  0  0  0  0  0  0  0  0  0  0
   50.9737   35.2830   31.2641 H   0  0  0  0  0  0  0  0  0  0  0  0
   49.6682   35.5504   29.2942 H   0  0  0  0  0  0  0  0  0  0  0  0
   47.1365   35.1274   30.0183 H   0  0  0  0  0  0  0  0  0  0  0  0
   47.4661   36.3993   31.2830 H   0  0  0  0  0  0  0  0  0  0  0  0
   46.4518   36.8279   28.7235 H   0  0  0  0  0  0  0  0  0  0  0  0
   47.1742   38.0554   29.8655 H   0  0  0  0  0  0  0  0  0  0  0  0
   49.1758   38.1383   28.7495 H   0  0  0  0  0  0  0  0  0  0  0  0
   48.9341   36.4857   28.0133 H   0  0  0  0  0  0  0  0  0  0  0  0
   46.9144   38.3983   27.1318 H   0  0  0  0  0  0  0  0  0  0  0  0
   48.6208   38.9198   26.7451 H   0  0  0  0  0  0  0  0  0  0  0  0
   47.8969   37.7031   24.8550 H   0  0  0  0  0  0  0  0  0  0  0  0
   48.9557   36.5820   25.8003 H   0  0  0  0  0  0  0  0  0  0  0  0
   46.3143   36.2370   26.7993 H   0  0  0  0  0  0  0  0  0  0  0  0
   46.2080   36.2546   24.9837 H   0  0  0  0  0  0  0  0  0  0  0  0
   46.6819   34.0662   25.1705 H   0  0  0  0  0  0  0  0  0  0  0  0
   48.3857   34.6842   25.3771 H   0  0  0  0  0  0  0  0  0  0  0  0
  1  2  1  0
  2  3  1  0
  3  4  1  0
  4  5  1  0
  5  6  1  0
  6  7  2  0
  7  8  1  0
  8  9  1  0
  9 10  2  0
 10 11  1  0
 11 12  1  0
 12 13  1  0
 13 14  1  0
 14 15  1  0
 15 16  1  0
 16 17  1  0
 17 18  1  0
 18 19  2  0
 18 20  1  0
  1 21  1  0
  1 22  1  0
  1 23  1  0
  2 24  1  0
  2 25  1  0
  3 26  1  0
  3 27  1  0
  4 28  1  0
  4 29  1  0
  5 30  1  0
  5 31  1  0
  6 32  1  0
  7 33  1  0
  8 34  1  0
  8 35  1  0
  9 36  1  0
 10 37  1  0
 11 38  1  0
 11 39  1  0
 12 40  1  0
 12 41  1  0
 13 42  1  0
 13 43  1  0
 14 44  1  0
 14 45  1  0
 15 46  1  0
 15 47  1  0
 16 48  1  0
 16 49  1  0
 17 50  1  0
 17 51  1  0
M  CHG  1  20  -1
M  END
>  <meeko>  (10) 
{"is_sidechain": [false], "free_energy": -5.281, "intermolecular_energy": -9.51, "internal_energy": -1.827}

$$$$
linoleate_run01
     RDKit          3D

 51 50  0  0  0  0  0  0  0  0999 V2000
   46.6980   31.5970   26.0410 C   0  0  0  0  0  0  0  0  0  0  0  0
   46.3790   32.2500   27.3770 C   0  0  0  0  0  0  0  0  0  0  0  0
   46.7100   33.7440   27.4210 C   0  0  0  0  0  0  0  0  0  0  0  0
   46.7140   34.4050   26.0400 C   0  0  0  0  0  0  0  0  0  0  0  0
   47.8440   35.4350   25.9240 C   0  0  0  0  0  0  0  0  0  0  0  0
   47.4420   36.8850   25.9040 C   0  0  0  0  0  0  0  0  0  0  0  0
   47.6860   37.8120   26.8430 C   0  0  0  0  0  0  0  0  0  0  0  0
   48.4320   37.5270   28.1150 C   0  0  0  0  0  0  0  0  0  0  0  0
   47.5100   37.0560   29.2000 C   0  0  0  0  0  0  0  0  0  0  0  0
   47.8250   36.0950   30.0820 C   0  0  0  0  0  0  0  0  0  0  0  0
   49.1420   35.3720   30.0920 C   0  0  0  0  0  0  0  0  0  0  0  0
   50.0530   35.7970   31.2490 C   0  0  0  0  0  0  0  0  0  0  0  0
   50.1920   34.7250   32.3350 C   0  0  0  0  0  0  0  0  0  0  0  0
   49.0300   34.7190   33.3350 C   0  0  0  0  0  0  0  0  0  0  0  0
   48.8220   33.3640   34.0160 C   0  0  0  0  0  0  0  0  0  0  0  0
   47.3900   32.8550   33.8090 C   0  0  0  0  0  0  0  0  0  0  0  0
   46.5470   33.8130   32.9680 C   0  0  0  0  0  0  0  0  0  0  0  0
   45.3210   34.3150   33.6910 C   0  0  0  0  0  0  0  0  0  0  0  0
   44.4210   34.9830   33.2040 O   0  0  0  0  0  0  0  0  0  0  0  0
   45.3320   33.8900   34.9800 O   0  0  0  0  0  0  0  0  0  0  0  0
   47.1748   30.6210   26.2145 H   0  0  0  0  0  0  0  0  0  0  0  0
   45.7680   31.4546   25.4711 H   0  0  0  0  0  0  0  0  0  0  0  0
   47.3820   32.2431   25.4711 H   0  0  0  0  0  0  0  0  0  0  0  0
   45.3047   32.1253   27.5778 H   0  0  0  0  0  0  0  0  0  0  0  0
   47.0051   31.7574   28.1355 H   0  0  0  0  0  0  0  0  0  0  0  0
   45.9603   34.2493   28.0476 H   0  0  0  0  0  0  0  0  0  0  0  0
   47.7262   33.8403   27.8309 H   0  0  0  0  0  0  0  0  0  0  0  0
   46.8536   33.6305   25.2715 H   0  0  0  0  0  0  0  0  0  0  0  0
   45.7538   34.9224   25.8977 H   0  0  0  0  0  0  0  0  0  0  0  0
   48.5172   35.2883   26.7815 H   0  0  0  0  0  0  0  0  0  0  0  0
   48.3018   35.2500   24.9410 H   0  0  0  0  0  0  0  0  0  0  0  0
   46.8844   37.2237   25.0184 H   0  0  0  0  0  0  0  0  0  0  0  0
   47.3201   38.8352   26.6720 H   0  0  0  0  0  0  0  0  0  0  0  0
   49.1836   36.7475   27.9214 H   0  0  0  0  0  0  0  0  0  0  0  0
   48.9110   38.4588   28.4500 H   0  0  0  0  0  0  0  0  0  0  0  0
   46.5182   37.5254   29.2773 H   0  0  0  0  0  0  0  0  0  0  0  0
   47.0768   35.8211   30.8404 H   0  0  0  0  0  0  0  0  0  0  0  0
   48.9481   34.2926   30.1775 H   0  0  0  0  0  0  0  0  0  0  0  0
   49.6616   35.6244   29.1559 H   0  0  0  0  0  0  0  0  0  0  0  0
   51.0522   36.0161   30.8445 H   0  0  0  0  0  0  0  0  0  0  0  0
   49.5938   36.6794   31.7186 H   0  0  0  0  0  0  0  0  0  0  0  0
   50.2388   33.7395   31.8485 H   0  0  0  0  0  0  0  0  0  0  0  0
   51.1073   34.9523   32.9012 H   0  0  0  0  0  0  0  0  0  0  0  0
   49.2336   35.4717   34.1109 H   0  0  0  0  0  0  0  0  0  0  0  0
   48.1134   34.9427   32.7695 H   0  0  0  0  0  0  0  0  0  0  0  0
   49.5272   32.6356   33.5892 H   0  0  0  0  0  0  0  0  0  0  0  0
   48.9967   33.4853   35.0952 H   0  0  0  0  0  0  0  0  0  0  0  0
   47.4315   31.8809   33.2997 H   0  0  0  0  0  0  0  0  0  0  0  0
   46.9170   32.7726   34.7987 H   0  0  0  0  0  0  0  0  0  0  0  0
   47.1694   34.6773   32.6929 H   0  0  0  0  0  0  0  0  0  0  0  0
   46.2012   33.2559   32.0848 H   0  0  0  0  0  0  0  0  0  0  0  0
  1  2  1  0
  2  3  1  0
  3  4  1  0
  4  5  1  0
  5  6  1  0
  6  7  2  0
  7  8  1  0
  8  9  1  0
  9 10  2  0
 10 11  1  0
 11 12  1  0
 12 13  1  0
 13 14  1  0
 14 15  1  0
 15 16  1  0
 16 17  1  0
 17 18  1  0
 18 19  2  0
 18 20  1  0
  1 21  1  0
  1 22  1  0
  1 23  1  0
  2 24  1  0
  2 25  1  0
  3 26  1  0
  3 27  1  0
  4 28  1  0
  4 29  1  0
  5 30  1  0
  5 31  1  0
  6 32  1  0
  7 33  1  0
  8 34  1  0
  8 35  1  0
  9 36  1  0
 10 37  1  0
 11 38  1  0
 11 39  1  0
 12 40  1  0
 12 41  1  0
 13 42  1  0
 13 43  1  0
 14 44  1  0
 14 45  1  0
 15 46  1  0
 15 47  1  0
 16 48  1  0
 16 49  1  0
 17 50  1  0
 17 51  1  0
M  CHG  1  20  -1
M  END
>  <meeko>  (11) 
{"is_sidechain": [false], "free_energy": -5.279, "intermolecular_energy": -9.524, "internal_energy": -1.81}

$$$$
linoleate_run01
     RDKit          3D

 51 50  0  0  0  0  0  0  0  0999 V2000
   50.4790   32.9950   25.3340 C   0  0  0  0  0  0  0  0  0  0  0  0
   49.1470   32.2610   25.3390 C   0  0  0  0  0  0  0  0  0  0  0  0
   48.4890   32.1980   26.7200 C   0  0  0  0  0  0  0  0  0  0  0  0
   46.9750   31.9770   26.6610 C   0  0  0  0  0  0  0  0  0  0  0  0
   46.2170   33.3040   26.7860 C   0  0  0  0  0  0  0  0  0  0  0  0
   45.9490   34.0550   25.5090 C   0  0  0  0  0  0  0  0  0  0  0  0
   46.5570   35.1720   25.0780 C   0  0  0  0  0  0  0  0  0  0  0  0
   47.6440   35.8730   25.8420 C   0  0  0  0  0  0  0  0  0  0  0  0
   47.3450   37.3330   26.0110 C   0  0  0  0  0  0  0  0  0  0  0  0
   47.7140   38.0500   27.0820 C   0  0  0  0  0  0  0  0  0  0  0  0
   48.4740   37.4800   28.2460 C   0  0  0  0  0  0  0  0  0  0  0  0
   47.5640   36.8740   29.3210 C   0  0  0  0  0  0  0  0  0  0  0  0
   48.2570   35.8010   30.1670 C   0  0  0  0  0  0  0  0  0  0  0  0
   47.6930   34.3940   29.9420 C   0  0  0  0  0  0  0  0  0  0  0  0
   48.1800   33.3730   30.9730 C   0  0  0  0  0  0  0  0  0  0  0  0
   47.9670   33.8860   32.4030 C   0  0  0  0  0  0  0  0  0  0  0  0
   46.6950   33.3260   33.0390 C   0  0  0  0  0  0  0  0  0  0  0  0
   45.8690   34.3790   33.7380 C   0  0  0  0  0  0  0  0  0  0  0  0
   45.0250   34.1780   34.5980 O   0  0  0  0  0  0  0  0  0  0  0  0
   46.2160   35.6150   33.2960 O   0  0  0  0  0  0  0  0  0  0  0  0
   50.8031   33.1736   26.3699 H   0  0  0  0  0  0  0  0  0  0  0  0
   51.2321   32.3845   24.8143 H   0  0  0  0  0  0  0  0  0  0  0  0
   50.3652   33.9578   24.8143 H   0  0  0  0  0  0  0  0  0  0  0  0
   48.4623   32.7777   24.6504 H   0  0  0  0  0  0  0  0  0  0  0  0
   49.3476   31.2249   25.0289 H   0  0  0  0  0  0  0  0  0  0  0  0
   48.9409   31.3690   27.2844 H   0  0  0  0  0  0  0  0  0  0  0  0
   48.6572   33.1707   27.2053 H   0  0  0  0  0  0  0  0  0  0  0  0
   46.7181   31.5058   25.7008 H   0  0  0  0  0  0  0  0  0  0  0  0
   46.6841   31.3286   27.5006 H   0  0  0  0  0  0  0  0  0  0  0  0
   45.2459   33.0897   27.2562 H   0  0  0  0  0  0  0  0  0  0  0  0
   46.8781   33.9592   27.3722 H   0  0  0  0  0  0  0  0  0  0  0  0
   45.1667   33.6420   24.8552 H   0  0  0  0  0  0  0  0  0  0  0  0
   46.2421   35.5967   24.1134 H   0  0  0  0  0  0  0  0  0  0  0  0
   47.7378   35.4102   26.8355 H   0  0  0  0  0  0  0  0  0  0  0  0
   48.5813   35.7767   25.2744 H   0  0  0  0  0  0  0  0  0  0  0  0
   46.7912   37.8448   25.2102 H   0  0  0  0  0  0  0  0  0  0  0  0
   47.4451   39.1162   27.1102 H   0  0  0  0  0  0  0  0  0  0  0  0
   49.1469   36.6937   27.8733 H   0  0  0  0  0  0  0  0  0  0  0  0
   49.0267   38.3082   28.7135 H   0  0  0  0  0  0  0  0  0  0  0  0
   47.2267   37.6808   29.9883 H   0  0  0  0  0  0  0  0  0  0  0  0
   46.7251   36.3878   28.8015 H   0  0  0  0  0  0  0  0  0  0  0  0
   49.3271   35.7930   29.9126 H   0  0  0  0  0  0  0  0  0  0  0  0
   48.0839   36.0564   31.2228 H   0  0  0  0  0  0  0  0  0  0  0  0
   46.5954   34.4457   29.9937 H   0  0  0  0  0  0  0  0  0  0  0  0
   48.0468   34.0555   28.9570 H   0  0  0  0  0  0  0  0  0  0  0  0
   47.6210   32.4349   30.8411 H   0  0  0  0  0  0  0  0  0  0  0  0
   49.2564   33.2073   30.8184 H   0  0  0  0  0  0  0  0  0  0  0  0
   48.8297   33.5885   33.0173 H   0  0  0  0  0  0  0  0  0  0  0  0
   47.8646   34.9802   32.3552 H   0  0  0  0  0  0  0  0  0  0  0  0
   46.0817   32.8671   32.2495 H   0  0  0  0  0  0  0  0  0  0  0  0
   47.0037   32.5933   33.7992 H   0  0  0  0  0  0  0  0  0  0  0  0
  1  2  1  0
  2  3  1  0
  3  4  1  0
  4  5  1  0
  5  6  1  0
  6  7  2  0
  7  8  1  0
  8  9  1  0
  9 10  2  0
 10 11  1  0
 11 12  1  0
 12 13  1  0
 13 14  1  0
 14 15  1  0
 15 16  1  0
 16 17  1  0
 17 18  1  0
 18 19  2  0
 18 20  1  0
  1 21  1  0
  1 22  1  0
  1 23  1  0
  2 24  1  0
  2 25  1  0
  3 26  1  0
  3 27  1  0
  4 28  1  0
  4 29  1  0
  5 30  1  0
  5 31  1  0
  6 32  1  0
  7 33  1  0
  8 34  1  0
  8 35  1  0
  9 36  1  0
 10 37  1  0
 11 38  1  0
 11 39  1  0
 12 40  1  0
 12 41  1  0
 13 42  1  0
 13 43  1  0
 14 44  1  0
 14 45  1  0
 15 46  1  0
 15 47  1  0
 16 48  1  0
 16 49  1  0
 17 50  1  0
 17 51  1  0
M  CHG  1  20  -1
M  END
>  <meeko>  (12) 
{"is_sidechain": [false], "free_energy": -5.251, "intermolecular_energy": -9.421, "internal_energy": -1.861}

$$$$
linoleate_run01
     RDKit          3D

 51 50  0  0  0  0  0  0  0  0999 V2000
   50.0260   35.5890   31.0780 C   0  0  0  0  0  0  0  0  0  0  0  0
   49.1700   35.3980   29.8350 C   0  0  0  0  0  0  0  0  0  0  0  0
   47.7190   35.8490   30.0170 C   0  0  0  0  0  0  0  0  0  0  0  0
   47.4180   37.2030   29.3680 C   0  0  0  0  0  0  0  0  0  0  0  0
   48.4080   37.5040   28.2350 C   0  0  0  0  0  0  0  0  0  0  0  0
   47.8180   37.8660   26.8990 C   0  0  0  0  0  0  0  0  0  0  0  0
   47.5650   37.0420   25.8700 C   0  0  0  0  0  0  0  0  0  0  0  0
   47.8470   35.5670   25.9000 C   0  0  0  0  0  0  0  0  0  0  0  0
   46.6400   34.7680   25.5040 C   0  0  0  0  0  0  0  0  0  0  0  0
   46.1320   33.7700   26.2430 C   0  0  0  0  0  0  0  0  0  0  0  0
   46.7080   33.3310   27.5600 C   0  0  0  0  0  0  0  0  0  0  0  0
   45.9200   32.1880   28.2100 C   0  0  0  0  0  0  0  0  0  0  0  0
   46.7650   31.3340   29.1620 C   0  0  0  0  0  0  0  0  0  0  0  0
   46.5170   31.6520   30.6410 C   0  0  0  0  0  0  0  0  0  0  0  0
   45.4610   30.7510   31.2860 C   0  0  0  0  0  0  0  0  0  0  0  0
   44.6930   31.4990   32.3830 C   0  0  0  0  0  0  0  0  0  0  0  0
   45.5580   31.7810   33.6110 C   0  0  0  0  0  0  0  0  0  0  0  0
   45.5270   33.2280   34.0390 C   0  0  0  0  0  0  0  0  0  0  0  0
   46.0840   33.7020   35.0170 O   0  0  0  0  0  0  0  0  0  0  0  0
   44.8040   33.9610   33.1540 O   0  0  0  0  0  0  0  0  0  0  0  0
   49.4053   35.4505   31.9755 H   0  0  0  0  0  0  0  0  0  0  0  0
   50.8414   34.8507   31.0786 H   0  0  0  0  0  0  0  0  0  0  0  0
   50.4502   36.6039   31.0786 H   0  0  0  0  0  0  0  0  0  0  0  0
   49.6146   35.9790   29.0136 H   0  0  0  0  0  0  0  0  0  0  0  0
   49.1487   34.3195   29.6198 H   0  0  0  0  0  0  0  0  0  0  0  0
   47.0594   35.0922   29.5672 H   0  0  0  0  0  0  0  0  0  0  0  0
   47.5464   35.9609   31.0976 H   0  0  0  0  0  0  0  0  0  0  0  0
   46.3973   37.1862   28.9583 H   0  0  0  0  0  0  0  0  0  0  0  0
   47.5141   37.9869   30.1337 H   0  0  0  0  0  0  0  0  0  0  0  0
   49.0395   38.3444   28.5590 H   0  0  0  0  0  0  0  0  0  0  0  0
   48.9484   36.5609   28.0658 H   0  0  0  0  0  0  0  0  0  0  0  0
   47.5654   38.9260   26.7485 H   0  0  0  0  0  0  0  0  0  0  0  0
   47.1277   37.4699   24.9558 H   0  0  0  0  0  0  0  0  0  0  0  0
   48.6672   35.3456   25.2012 H   0  0  0  0  0  0  0  0  0  0  0  0
   48.1226   35.2892   26.9280 H   0  0  0  0  0  0  0  0  0  0  0  0
   46.1435   35.0146   24.5539 H   0  0  0  0  0  0  0  0  0  0  0  0
   45.2439   33.2434   25.8636 H   0  0  0  0  0  0  0  0  0  0  0  0
   47.7419   32.9938   27.3949 H   0  0  0  0  0  0  0  0  0  0  0  0
   46.6597   34.1923   28.2425 H   0  0  0  0  0  0  0  0  0  0  0  0
   45.0829   32.6199   28.7782 H   0  0  0  0  0  0  0  0  0  0  0  0
   45.5746   31.5285   27.4002 H   0  0  0  0  0  0  0  0  0  0  0  0
   46.5252   30.2748   28.9873 H   0  0  0  0  0  0  0  0  0  0  0  0
   47.8211   31.5590   28.9522 H   0  0  0  0  0  0  0  0  0  0  0  0
   47.4631   31.5277   31.1881 H   0  0  0  0  0  0  0  0  0  0  0  0
   46.1401   32.6841   30.6932 H   0  0  0  0  0  0  0  0  0  0  0  0
   44.7518   30.4188   30.5136 H   0  0  0  0  0  0  0  0  0  0  0  0
   45.9688   29.8879   31.7412 H   0  0  0  0  0  0  0  0  0  0  0  0
   44.3365   32.4562   31.9747 H   0  0  0  0  0  0  0  0  0  0  0  0
   43.8562   30.8601   32.7018 H   0  0  0  0  0  0  0  0  0  0  0  0
   45.1948   31.1618   34.4445 H   0  0  0  0  0  0  0  0  0  0  0  0
   46.5972   31.5415   33.3415 H   0  0  0  0  0  0  0  0  0  0  0  0
  1  2  1  0
  2  3  1  0
  3  4  1  0
  4  5  1  0
  5  6  1  0
  6  7  2  0
  7  8  1  0
  8  9  1  0
  9 10  2  0
 10 11  1  0
 11 12  1  0
 12 13  1  0
 13 14  1  0
 14 15  1  0
 15 16  1  0
 16 17  1  0
 17 18  1  0
 18 19  2  0
 18 20  1  0
  1 21  1  0
  1 22  1  0
  1 23  1  0
  2 24  1  0
  2 25  1  0
  3 26  1  0
  3 27  1  0
  4 28  1  0
  4 29  1  0
  5 30  1  0
  5 31  1  0
  6 32  1  0
  7 33  1  0
  8 34  1  0
  8 35  1  0
  9 36  1  0
 10 37  1  0
 11 38  1  0
 11 39  1  0
 12 40  1  0
 12 41  1  0
 13 42  1  0
 13 43  1  0
 14 44  1  0
 14 45  1  0
 15 46  1  0
 15 47  1  0
 16 48  1  0
 16 49  1  0
 17 50  1  0
 17 51  1  0
M  CHG  1  20  -1
M  END
>  <meeko>  (13) 
{"is_sidechain": [false], "free_energy": -5.223, "intermolecular_energy": -9.586, "internal_energy": -1.646}

$$$$
linoleate_run01
     RDKit          3D

 51 50  0  0  0  0  0  0  0  0999 V2000
   49.2500   33.8060   30.1330 C   0  0  0  0  0  0  0  0  0  0  0  0
   48.9120   35.1130   29.4320 C   0  0  0  0  0  0  0  0  0  0  0  0
   47.8620   35.9470   30.1690 C   0  0  0  0  0  0  0  0  0  0  0  0
   47.3060   37.1020   29.3300 C   0  0  0  0  0  0  0  0  0  0  0  0
   48.3440   37.5970   28.3160 C   0  0  0  0  0  0  0  0  0  0  0  0
   47.8210   38.0670   26.9850 C   0  0  0  0  0  0  0  0  0  0  0  0
   47.5870   37.3230   25.8930 C   0  0  0  0  0  0  0  0  0  0  0  0
   47.8240   35.8410   25.8320 C   0  0  0  0  0  0  0  0  0  0  0  0
   46.5810   35.1000   25.4400 C   0  0  0  0  0  0  0  0  0  0  0  0
   46.1980   33.9400   25.9960 C   0  0  0  0  0  0  0  0  0  0  0  0
   46.9670   33.2420   27.0810 C   0  0  0  0  0  0  0  0  0  0  0  0
   47.8540   32.1070   26.5560 C   0  0  0  0  0  0  0  0  0  0  0  0
   49.3520   32.4080   26.6670 C   0  0  0  0  0  0  0  0  0  0  0  0
   49.9500   32.9940   25.3840 C   0  0  0  0  0  0  0  0  0  0  0  0
   51.0830   32.1460   24.8000 C   0  0  0  0  0  0  0  0  0  0  0  0
   52.3260   32.1910   25.6980 C   0  0  0  0  0  0  0  0  0  0  0  0
   53.5070   31.4290   25.0970 C   0  0  0  0  0  0  0  0  0  0  0  0
   54.7540   32.2710   24.9740 C   0  0  0  0  0  0  0  0  0  0  0  0
   55.4540   32.6600   25.8960 O   0  0  0  0  0  0  0  0  0  0  0  0
   55.0210   32.5210   23.6660 O   0  0  0  0  0  0  0  0  0  0  0  0
   49.2118   33.9537   31.2224 H   0  0  0  0  0  0  0  0  0  0  0  0
   48.5218   33.0347   29.8418 H   0  0  0  0  0  0  0  0  0  0  0  0
   50.2608   33.4845   29.8418 H   0  0  0  0  0  0  0  0  0  0  0  0
   49.8321   35.7095   29.3450 H   0  0  0  0  0  0  0  0  0  0  0  0
   48.4886   34.8537   28.4504 H   0  0  0  0  0  0  0  0  0  0  0  0
   47.0280   35.2877   30.4513 H   0  0  0  0  0  0  0  0  0  0  0  0
   48.3558   36.3904   31.0463 H   0  0  0  0  0  0  0  0  0  0  0  0
   46.4125   36.7560   28.7897 H   0  0  0  0  0  0  0  0  0  0  0  0
   47.0522   37.9332   30.0043 H   0  0  0  0  0  0  0  0  0  0  0  0
   48.8851   38.4368   28.7765 H   0  0  0  0  0  0  0  0  0  0  0  0
   48.9654   36.7186   28.0876 H   0  0  0  0  0  0  0  0  0  0  0  0
   47.6063   39.1423   26.8976 H   0  0  0  0  0  0  0  0  0  0  0  0
   47.2008   37.8256   24.9940 H   0  0  0  0  0  0  0  0  0  0  0  0
   48.6110   35.6353   25.0915 H   0  0  0  0  0  0  0  0  0  0  0  0
   48.1277   35.4992   26.8325 H   0  0  0  0  0  0  0  0  0  0  0  0
   45.9467   35.5317   24.6517 H   0  0  0  0  0  0  0  0  0  0  0  0
   45.2685   33.4742   25.6368 H   0  0  0  0  0  0  0  0  0  0  0  0
   47.6064   33.9802   27.5871 H   0  0  0  0  0  0  0  0  0  0  0  0
   46.2327   32.7936   27.7664 H   0  0  0  0  0  0  0  0  0  0  0  0
   47.6367   31.1975   27.1354 H   0  0  0  0  0  0  0  0  0  0  0  0
   47.6250   31.9822   25.4874 H   0  0  0  0  0  0  0  0  0  0  0  0
   49.5035   33.1292   27.4837 H   0  0  0  0  0  0  0  0  0  0  0  0
   49.8627   31.4525   26.8571 H   0  0  0  0  0  0  0  0  0  0  0  0
   49.1513   33.0746   24.6320 H   0  0  0  0  0  0  0  0  0  0  0  0
   50.3774   33.9741   25.6425 H   0  0  0  0  0  0  0  0  0  0  0  0
   50.7422   31.1040   24.7102 H   0  0  0  0  0  0  0  0  0  0  0  0
   51.3501   32.5519   23.8131 H   0  0  0  0  0  0  0  0  0  0  0  0
   52.6198   33.2412   25.8422 H   0  0  0  0  0  0  0  0  0  0  0  0
   52.0675   31.7100   26.6529 H   0  0  0  0  0  0  0  0  0  0  0  0
   53.7300   30.5650   25.7402 H   0  0  0  0  0  0  0  0  0  0  0  0
   53.2168   31.1222   24.0813 H   0  0  0  0  0  0  0  0  0  0  0  0
  1  2  1  0
  2  3  1  0
  3  4  1  0
  4  5  1  0
  5  6  1  0
  6  7  2  0
  7  8  1  0
  8  9  1  0
  9 10  2  0
 10 11  1  0
 11 12  1  0
 12 13  1  0
 13 14  1  0
 14 15  1  0
 15 16  1  0
 16 17  1  0
 17 18  1  0
 18 19  2  0
 18 20  1  0
  1 21  1  0
  1 22  1  0
  1 23  1  0
  2 24  1  0
  2 25  1  0
  3 26  1  0
  3 27  1  0
  4 28  1  0
  4 29  1  0
  5 30  1  0
  5 31  1  0
  6 32  1  0
  7 33  1  0
  8 34  1  0
  8 35  1  0
  9 36  1  0
 10 37  1  0
 11 38  1  0
 11 39  1  0
 12 40  1  0
 12 41  1  0
 13 42  1  0
 13 43  1  0
 14 44  1  0
 14 45  1  0
 15 46  1  0
 15 47  1  0
 16 48  1  0
 16 49  1  0
 17 50  1  0
 17 51  1  0
M  CHG  1  20  -1
M  END
>  <meeko>  (14) 
{"is_sidechain": [false], "free_energy": -5.168, "intermolecular_energy": -9.181, "internal_energy": -1.951}

$$$$
linoleate_run01
     RDKit          3D

 51 50  0  0  0  0  0  0  0  0999 V2000
   47.0500   27.9350   24.3500 C   0  0  0  0  0  0  0  0  0  0  0  0
   47.6310   29.2780   24.7650 C   0  0  0  0  0  0  0  0  0  0  0  0
   48.9250   29.6370   24.0310 C   0  0  0  0  0  0  0  0  0  0  0  0
   50.0460   30.0960   24.9670 C   0  0  0  0  0  0  0  0  0  0  0  0
   50.7610   31.3330   24.4090 C   0  0  0  0  0  0  0  0  0  0  0  0
   50.7660   32.5630   25.2760 C   0  0  0  0  0  0  0  0  0  0  0  0
   49.7280   33.3650   25.5580 C   0  0  0  0  0  0  0  0  0  0  0  0
   48.3410   33.1460   25.0230 C   0  0  0  0  0  0  0  0  0  0  0  0
   47.3040   33.3250   26.0920 C   0  0  0  0  0  0  0  0  0  0  0  0
   46.6300   34.4680   26.2920 C   0  0  0  0  0  0  0  0  0  0  0  0
   46.8290   35.7090   25.4690 C   0  0  0  0  0  0  0  0  0  0  0  0
   48.0280   36.5480   25.9270 C   0  0  0  0  0  0  0  0  0  0  0  0
   47.6240   37.8500   26.6270 C   0  0  0  0  0  0  0  0  0  0  0  0
   48.2390   38.0050   28.0220 C   0  0  0  0  0  0  0  0  0  0  0  0
   47.6060   37.0860   29.0700 C   0  0  0  0  0  0  0  0  0  0  0  0
   48.6420   36.1210   29.6580 C   0  0  0  0  0  0  0  0  0  0  0  0
   48.0340   35.1710   30.6890 C   0  0  0  0  0  0  0  0  0  0  0  0
   47.7150   35.8450   32.0020 C   0  0  0  0  0  0  0  0  0  0  0  0
   48.5160   36.3940   32.7430 O   0  0  0  0  0  0  0  0  0  0  0  0
   46.3800   35.7870   32.2440 O   0  0  0  0  0  0  0  0  0  0  0  0
   46.7976   27.3515   25.2477 H   0  0  0  0  0  0  0  0  0  0  0  0
   46.1418   28.0977   23.7511 H   0  0  0  0  0  0  0  0  0  0  0  0
   47.7904   27.3845   23.7511 H   0  0  0  0  0  0  0  0  0  0  0  0
   46.8849   30.0591   24.5574 H   0  0  0  0  0  0  0  0  0  0  0  0
   47.8752   29.2078   25.8353 H   0  0  0  0  0  0  0  0  0  0  0  0
   49.2714   28.7500   23.4804 H   0  0  0  0  0  0  0  0  0  0  0  0
   48.6960   30.4785   23.3606 H   0  0  0  0  0  0  0  0  0  0  0  0
   49.6156   30.3425   25.9488 H   0  0  0  0  0  0  0  0  0  0  0  0
   50.7792   29.2812   25.0592 H   0  0  0  0  0  0  0  0  0  0  0  0
   51.8084   31.0549   24.2200 H   0  0  0  0  0  0  0  0  0  0  0  0
   50.1898   31.6154   23.5124 H   0  0  0  0  0  0  0  0  0  0  0  0
   51.7301   32.8355   25.7301 H   0  0  0  0  0  0  0  0  0  0  0  0
   49.9016   34.2291   26.2161 H   0  0  0  0  0  0  0  0  0  0  0  0
   48.1509   33.8691   24.2162 H   0  0  0  0  0  0  0  0  0  0  0  0
   48.2750   32.1140   24.6480 H   0  0  0  0  0  0  0  0  0  0  0  0
   47.0836   32.4709   26.7492 H   0  0  0  0  0  0  0  0  0  0  0  0
   45.8896   34.4980   27.1049 H   0  0  0  0  0  0  0  0  0  0  0  0
   46.9885   35.4128   24.4217 H   0  0  0  0  0  0  0  0  0  0  0  0
   45.9290   36.3300   25.5886 H   0  0  0  0  0  0  0  0  0  0  0  0
   48.6280   35.9471   26.6263 H   0  0  0  0  0  0  0  0  0  0  0  0
   48.5955   36.8246   25.0262 H   0  0  0  0  0  0  0  0  0  0  0  0
   47.9511   38.6965   26.0054 H   0  0  0  0  0  0  0  0  0  0  0  0
   46.5316   37.8261   26.7537 H   0  0  0  0  0  0  0  0  0  0  0  0
   49.3124   37.7734   27.9577 H   0  0  0  0  0  0  0  0  0  0  0  0
   48.0561   39.0406   28.3447 H   0  0  0  0  0  0  0  0  0  0  0  0
   47.1873   37.7007   29.8805 H   0  0  0  0  0  0  0  0  0  0  0  0
   46.8156   36.4952   28.5839 H   0  0  0  0  0  0  0  0  0  0  0  0
   49.0740   35.5254   28.8403 H   0  0  0  0  0  0  0  0  0  0  0  0
   49.4093   36.7224   30.1675 H   0  0  0  0  0  0  0  0  0  0  0  0
   47.1042   34.7540   30.2749 H   0  0  0  0  0  0  0  0  0  0  0  0
   48.7807   34.3900   30.8949 H   0  0  0  0  0  0  0  0  0  0  0  0
  1  2  1  0
  2  3  1  0
  3  4  1  0
  4  5  1  0
  5  6  1  0
  6  7  2  0
  7  8  1  0
  8  9  1  0
  9 10  2  0
 10 11  1  0
 11 12  1  0
 12 13  1  0
 13 14  1  0
 14 15  1  0
 15 16  1  0
 16 17  1  0
 17 18  1  0
 18 19  2  0
 18 20  1  0
  1 21  1  0
  1 22  1  0
  1 23  1  0
  2 24  1  0
  2 25  1  0
  3 26  1  0
  3 27  1  0
  4 28  1  0
  4 29  1  0
  5 30  1  0
  5 31  1  0
  6 32  1  0
  7 33  1  0
  8 34  1  0
  8 35  1  0
  9 36  1  0
 10 37  1  0
 11 38  1  0
 11 39  1  0
 12 40  1  0
 12 41  1  0
 13 42  1  0
 13 43  1  0
 14 44  1  0
 14 45  1  0
 15 46  1  0
 15 47  1  0
 16 48  1  0
 16 49  1  0
 17 50  1  0
 17 51  1  0
M  CHG  1  20  -1
M  END
>  <meeko>  (15) 
{"is_sidechain": [false], "free_energy": -5.089, "intermolecular_energy": -9.563, "internal_energy": -1.426}

$$$$
linoleate_run01
     RDKit          3D

 51 50  0  0  0  0  0  0  0  0999 V2000
   46.6870   34.3370   26.3120 C   0  0  0  0  0  0  0  0  0  0  0  0
   46.6440   35.5120   25.3480 C   0  0  0  0  0  0  0  0  0  0  0  0
   47.6940   36.5840   25.6450 C   0  0  0  0  0  0  0  0  0  0  0  0
   47.2710   37.5590   26.7480 C   0  0  0  0  0  0  0  0  0  0  0  0
   48.0750   37.3210   28.0320 C   0  0  0  0  0  0  0  0  0  0  0  0
   47.2870   37.0320   29.2820 C   0  0  0  0  0  0  0  0  0  0  0  0
   47.6970   36.3550   30.3660 C   0  0  0  0  0  0  0  0  0  0  0  0
   49.0680   35.7550   30.4980 C   0  0  0  0  0  0  0  0  0  0  0  0
   49.5290   35.7460   31.9260 C   0  0  0  0  0  0  0  0  0  0  0  0
   49.4440   34.6750   32.7300 C   0  0  0  0  0  0  0  0  0  0  0  0
   48.8770   33.3520   32.2990 C   0  0  0  0  0  0  0  0  0  0  0  0
   48.5610   32.4210   33.4750 C   0  0  0  0  0  0  0  0  0  0  0  0
   47.0660   32.1190   33.6240 C   0  0  0  0  0  0  0  0  0  0  0  0
   46.4320   32.7880   34.8480 C   0  0  0  0  0  0  0  0  0  0  0  0
   45.2750   33.7270   34.4950 C   0  0  0  0  0  0  0  0  0  0  0  0
   45.5420   34.4620   33.1760 C   0  0  0  0  0  0  0  0  0  0  0  0
   45.4680   35.9800   33.3290 C   0  0  0  0  0  0  0  0  0  0  0  0
   44.1020   36.4680   33.7460 C   0  0  0  0  0  0  0  0  0  0  0  0
   43.8580   37.2070   34.6880 O   0  0  0  0  0  0  0  0  0  0  0  0
   43.1560   35.9900   32.8980 O   0  0  0  0  0  0  0  0  0  0  0  0
   46.6733   34.7107   27.3465 H   0  0  0  0  0  0  0  0  0  0  0  0
   45.8118   33.6922   26.1435 H   0  0  0  0  0  0  0  0  0  0  0  0
   47.6069   33.7579   26.1435 H   0  0  0  0  0  0  0  0  0  0  0  0
   46.8122   35.1328   24.3292 H   0  0  0  0  0  0  0  0  0  0  0  0
   45.6576   35.9858   25.4594 H   0  0  0  0  0  0  0  0  0  0  0  0
   48.6231   36.0851   25.9578 H   0  0  0  0  0  0  0  0  0  0  0  0
   47.8279   37.1719   24.7250 H   0  0  0  0  0  0  0  0  0  0  0  0
   47.4424   38.5891   26.4023 H   0  0  0  0  0  0  0  0  0  0  0  0
   46.2053   37.3977   26.9676 H   0  0  0  0  0  0  0  0  0  0  0  0
   48.7417   36.4645   27.8533 H   0  0  0  0  0  0  0  0  0  0  0  0
   48.5903   38.2725   28.2298 H   0  0  0  0  0  0  0  0  0  0  0  0
   46.2580   37.4199   29.3100 H   0  0  0  0  0  0  0  0  0  0  0  0
   46.9922   36.2331   31.2017 H   0  0  0  0  0  0  0  0  0  0  0  0
   49.0432   34.7209   30.1239 H   0  0  0  0  0  0  0  0  0  0  0  0
   49.7703   36.3665   29.9124 H   0  0  0  0  0  0  0  0  0  0  0  0
   49.9613   36.6701   32.3372 H   0  0  0  0  0  0  0  0  0  0  0  0
   49.8101   34.7710   33.7628 H   0  0  0  0  0  0  0  0  0  0  0  0
   47.9485   33.5351   31.7382 H   0  0  0  0  0  0  0  0  0  0  0  0
   49.6395   32.8538   31.6822 H   0  0  0  0  0  0  0  0  0  0  0  0
   49.0955   31.4718   33.3223 H   0  0  0  0  0  0  0  0  0  0  0  0
   48.8828   32.9347   34.3929 H   0  0  0  0  0  0  0  0  0  0  0  0
   46.5461   32.4757   32.7226 H   0  0  0  0  0  0  0  0  0  0  0  0
   46.9648   31.0319   33.7577 H   0  0  0  0  0  0  0  0  0  0  0  0
   46.0519   32.0022   35.5174 H   0  0  0  0  0  0  0  0  0  0  0  0
   47.2124   33.3985   35.3258 H   0  0  0  0  0  0  0  0  0  0  0  0
   44.3514   33.1377   34.3971 H   0  0  0  0  0  0  0  0  0  0  0  0
   45.1746   34.4737   35.2965 H   0  0  0  0  0  0  0  0  0  0  0  0
   46.5465   34.1917   32.8182 H   0  0  0  0  0  0  0  0  0  0  0  0
   44.7636   34.1591   32.4602 H   0  0  0  0  0  0  0  0  0  0  0  0
   46.1982   36.2909   34.0906 H   0  0  0  0  0  0  0  0  0  0  0  0
   45.6865   36.4195   32.3446 H   0  0  0  0  0  0  0  0  0  0  0  0
  1  2  1  0
  2  3  1  0
  3  4  1  0
  4  5  1  0
  5  6  1  0
  6  7  2  0
  7  8  1  0
  8  9  1  0
  9 10  2  0
 10 11  1  0
 11 12  1  0
 12 13  1  0
 13 14  1  0
 14 15  1  0
 15 16  1  0
 16 17  1  0
 17 18  1  0
 18 19  2  0
 18 20  1  0
  1 21  1  0
  1 22  1  0
  1 23  1  0
  2 24  1  0
  2 25  1  0
  3 26  1  0
  3 27  1  0
  4 28  1  0
  4 29  1  0
  5 30  1  0
  5 31  1  0
  6 32  1  0
  7 33  1  0
  8 34  1  0
  8 35  1  0
  9 36  1  0
 10 37  1  0
 11 38  1  0
 11 39  1  0
 12 40  1  0
 12 41  1  0
 13 42  1  0
 13 43  1  0
 14 44  1  0
 14 45  1  0
 15 46  1  0
 15 47  1  0
 16 48  1  0
 16 49  1  0
 17 50  1  0
 17 51  1  0
M  CHG  1  20  -1
M  END
>  <meeko>  (16) 
{"is_sidechain": [false], "free_energy": -5.086, "intermolecular_energy": -9.309, "internal_energy": -1.674}

$$$$
linoleate_run01
     RDKit          3D

 51 50  0  0  0  0  0  0  0  0999 V2000
   50.9150   32.8110   25.2970 C   0  0  0  0  0  0  0  0  0  0  0  0
   49.5690   33.0630   25.9580 C   0  0  0  0  0  0  0  0  0  0  0  0
   48.3750   32.7260   25.0610 C   0  0  0  0  0  0  0  0  0  0  0  0
   47.0730   32.5130   25.8380 C   0  0  0  0  0  0  0  0  0  0  0  0
   46.5820   33.8250   26.4640 C   0  0  0  0  0  0  0  0  0  0  0  0
   46.3310   34.9720   25.5230 C   0  0  0  0  0  0  0  0  0  0  0  0
   46.9790   36.1470   25.4790 C   0  0  0  0  0  0  0  0  0  0  0  0
   48.1030   36.5090   26.4070 C   0  0  0  0  0  0  0  0  0  0  0  0
   47.6270   37.3680   27.5410 C   0  0  0  0  0  0  0  0  0  0  0  0
   47.6850   37.0010   28.8300 C   0  0  0  0  0  0  0  0  0  0  0  0
   48.2370   35.6850   29.2980 C   0  0  0  0  0  0  0  0  0  0  0  0
   48.5930   35.6770   30.7890 C   0  0  0  0  0  0  0  0  0  0  0  0
   50.0990   35.5860   31.0530 C   0  0  0  0  0  0  0  0  0  0  0  0
   50.4530   35.5530   32.5440 C   0  0  0  0  0  0  0  0  0  0  0  0
   51.4090   36.6710   32.9650 C   0  0  0  0  0  0  0  0  0  0  0  0
   52.8120   36.1210   33.2520 C   0  0  0  0  0  0  0  0  0  0  0  0
   53.7490   36.2600   32.0540 C   0  0  0  0  0  0  0  0  0  0  0  0
   54.1220   34.9350   31.4340 C   0  0  0  0  0  0  0  0  0  0  0  0
   54.4410   34.7480   30.2700 O   0  0  0  0  0  0  0  0  0  0  0  0
   54.0830   33.9540   32.3720 O   0  0  0  0  0  0  0  0  0  0  0  0
   51.6827   32.6673   26.0716 H   0  0  0  0  0  0  0  0  0  0  0  0
   50.8527   31.9089   24.6706 H   0  0  0  0  0  0  0  0  0  0  0  0
   51.1833   33.6745   24.6706 H   0  0  0  0  0  0  0  0  0  0  0  0
   49.5066   32.4464   26.8668 H   0  0  0  0  0  0  0  0  0  0  0  0
   49.5138   34.1391   26.1791 H   0  0  0  0  0  0  0  0  0  0  0  0
   48.2267   33.5538   24.3520 H   0  0  0  0  0  0  0  0  0  0  0  0
   48.6081   31.7795   24.5514 H   0  0  0  0  0  0  0  0  0  0  0  0
   46.3028   32.1325   25.1509 H   0  0  0  0  0  0  0  0  0  0  0  0
   47.2623   31.7902   26.6453 H   0  0  0  0  0  0  0  0  0  0  0  0
   45.6386   33.6115   26.9879 H   0  0  0  0  0  0  0  0  0  0  0  0
   47.4039   34.1597   27.1140 H   0  0  0  0  0  0  0  0  0  0  0  0
   45.5250   34.8319   24.7876 H   0  0  0  0  0  0  0  0  0  0  0  0
   46.6702   36.8839   24.7229 H   0  0  0  0  0  0  0  0  0  0  0  0
   48.5391   35.5860   26.8168 H   0  0  0  0  0  0  0  0  0  0  0  0
   48.8520   37.0769   25.8356 H   0  0  0  0  0  0  0  0  0  0  0  0
   47.2061   38.3557   27.3018 H   0  0  0  0  0  0  0  0  0  0  0  0
   47.3068   37.7037   29.5871 H   0  0  0  0  0  0  0  0  0  0  0  0
   47.4841   34.9044   29.1139 H   0  0  0  0  0  0  0  0  0  0  0  0
   49.1662   35.5020   28.7384 H   0  0  0  0  0  0  0  0  0  0  0  0
   48.2146   36.6047   31.2431 H   0  0  0  0  0  0  0  0  0  0  0  0
   48.1309   34.7810   31.2290 H   0  0  0  0  0  0  0  0  0  0  0  0
   50.4808   34.6676   30.5832 H   0  0  0  0  0  0  0  0  0  0  0  0
   50.5590   36.4909   30.6292 H   0  0  0  0  0  0  0  0  0  0  0  0
   49.5243   35.6506   33.1254 H   0  0  0  0  0  0  0  0  0  0  0  0
   50.9644   34.5982   32.7359 H   0  0  0  0  0  0  0  0  0  0  0  0
   51.4729   37.4127   32.1551 H   0  0  0  0  0  0  0  0  0  0  0  0
   51.0210   37.1339   33.8844 H   0  0  0  0  0  0  0  0  0  0  0  0
   53.2407   36.6729   34.1015 H   0  0  0  0  0  0  0  0  0  0  0  0
   52.7121   35.0488   33.4766 H   0  0  0  0  0  0  0  0  0  0  0  0
   53.2511   36.8756   31.2903 H   0  0  0  0  0  0  0  0  0  0  0  0
   54.6778   36.7239   32.4175 H   0  0  0  0  0  0  0  0  0  0  0  0
  1  2  1  0
  2  3  1  0
  3  4  1  0
  4  5  1  0
  5  6  1  0
  6  7  2  0
  7  8  1  0
  8  9  1  0
  9 10  2  0
 10 11  1  0
 11 12  1  0
 12 13  1  0
 13 14  1  0
 14 15  1  0
 15 16  1  0
 16 17  1  0
 17 18  1  0
 18 19  2  0
 18 20  1  0
  1 21  1  0
  1 22  1  0
  1 23  1  0
  2 24  1  0
  2 25  1  0
  3 26  1  0
  3 27  1  0
  4 28  1  0
  4 29  1  0
  5 30  1  0
  5 31  1  0
  6 32  1  0
  7 33  1  0
  8 34  1  0
  8 35  1  0
  9 36  1  0
 10 37  1  0
 11 38  1  0
 11 39  1  0
 12 40  1  0
 12 41  1  0
 13 42  1  0
 13 43  1  0
 14 44  1  0
 14 45  1  0
 15 46  1  0
 15 47  1  0
 16 48  1  0
 16 49  1  0
 17 50  1  0
 17 51  1  0
M  CHG  1  20  -1
M  END
>  <meeko>  (17) 
{"is_sidechain": [false], "free_energy": -5.075, "intermolecular_energy": -9.48, "internal_energy": -1.483}

$$$$
linoleate_run01
     RDKit          3D

 51 50  0  0  0  0  0  0  0  0999 V2000
   49.9250   31.7360   25.2460 C   0  0  0  0  0  0  0  0  0  0  0  0
   49.8740   33.2550   25.3190 C   0  0  0  0  0  0  0  0  0  0  0  0
   48.7240   33.7870   26.1770 C   0  0  0  0  0  0  0  0  0  0  0  0
   47.3850   33.8310   25.4360 C   0  0  0  0  0  0  0  0  0  0  0  0
   46.5660   35.0610   25.8470 C   0  0  0  0  0  0  0  0  0  0  0  0
   47.1880   36.4070   25.5890 C   0  0  0  0  0  0  0  0  0  0  0  0
   47.4610   37.3640   26.4900 C   0  0  0  0  0  0  0  0  0  0  0  0
   47.1710   37.2290   27.9580 C   0  0  0  0  0  0  0  0  0  0  0  0
   48.4340   37.1270   28.7610 C   0  0  0  0  0  0  0  0  0  0  0  0
   48.7790   36.0430   29.4730 C   0  0  0  0  0  0  0  0  0  0  0  0
   47.9440   34.7970   29.5510 C   0  0  0  0  0  0  0  0  0  0  0  0
   48.6820   33.6180   30.1960 C   0  0  0  0  0  0  0  0  0  0  0  0
   47.8400   32.3390   30.2640 C   0  0  0  0  0  0  0  0  0  0  0  0
   46.7890   32.3630   31.3800 C   0  0  0  0  0  0  0  0  0  0  0  0
   47.3420   32.8490   32.7220 C   0  0  0  0  0  0  0  0  0  0  0  0
   46.5420   34.0470   33.2490 C   0  0  0  0  0  0  0  0  0  0  0  0
   47.2680   35.3730   33.0350 C   0  0  0  0  0  0  0  0  0  0  0  0
   46.3370   36.5610   33.0020 C   0  0  0  0  0  0  0  0  0  0  0  0
   45.1660   36.5480   32.6570 O   0  0  0  0  0  0  0  0  0  0  0  0
   46.9810   37.6710   33.4450 O   0  0  0  0  0  0  0  0  0  0  0  0
   49.9390   31.3202   26.2643 H   0  0  0  0  0  0  0  0  0  0  0  0
   49.0388   31.3647   24.7105 H   0  0  0  0  0  0  0  0  0  0  0  0
   50.8341   31.4250   24.7105 H   0  0  0  0  0  0  0  0  0  0  0  0
   50.8219   33.6150   25.7454 H   0  0  0  0  0  0  0  0  0  0  0  0
   49.7106   33.6226   24.2952 H   0  0  0  0  0  0  0  0  0  0  0  0
   48.6148   33.1359   27.0569 H   0  0  0  0  0  0  0  0  0  0  0  0
   48.9764   34.8209   26.4549 H   0  0  0  0  0  0  0  0  0  0  0  0
   47.5749   33.8713   24.3533 H   0  0  0  0  0  0  0  0  0  0  0  0
   46.8127   32.9280   25.6951 H   0  0  0  0  0  0  0  0  0  0  0  0
   45.6127   35.0243   25.2993 H   0  0  0  0  0  0  0  0  0  0  0  0
   46.4719   34.9921   26.9408 H   0  0  0  0  0  0  0  0  0  0  0  0
   47.4483   36.6320   24.5442 H   0  0  0  0  0  0  0  0  0  0  0  0
   47.9219   38.2973   26.1343 H   0  0  0  0  0  0  0  0  0  0  0  0
   46.6047   38.1105   28.2930 H   0  0  0  0  0  0  0  0  0  0  0  0
   46.5892   36.3082   28.1115 H   0  0  0  0  0  0  0  0  0  0  0  0
   49.1162   37.9899   28.7665 H   0  0  0  0  0  0  0  0  0  0  0  0
   49.7267   36.0685   30.0309 H   0  0  0  0  0  0  0  0  0  0  0  0
   47.0447   35.0148   30.1459 H   0  0  0  0  0  0  0  0  0  0  0  0
   47.6950   34.5039   28.5204 H   0  0  0  0  0  0  0  0  0  0  0  0
   49.5875   33.4089   29.6074 H   0  0  0  0  0  0  0  0  0  0  0  0
   48.9176   33.9081   31.2306 H   0  0  0  0  0  0  0  0  0  0  0  0
   47.3240   32.2092   29.3013 H   0  0  0  0  0  0  0  0  0  0  0  0
   48.5271   31.5080   30.4816 H   0  0  0  0  0  0  0  0  0  0  0  0
   45.9718   33.0335   31.0757 H   0  0  0  0  0  0  0  0  0  0  0  0
   46.4441   31.3286   31.5251 H   0  0  0  0  0  0  0  0  0  0  0  0
   47.2835   32.0288   33.4527 H   0  0  0  0  0  0  0  0  0  0  0  0
   48.3859   33.1637   32.5758 H   0  0  0  0  0  0  0  0  0  0  0  0
   45.5760   34.0848   32.7242 H   0  0  0  0  0  0  0  0  0  0  0  0
   46.4080   33.9097   34.3321 H   0  0  0  0  0  0  0  0  0  0  0  0
   47.9869   35.5146   33.8555 H   0  0  0  0  0  0  0  0  0  0  0  0
   47.7653   35.3195   32.0553 H   0  0  0  0  0  0  0  0  0  0  0  0
  1  2  1  0
  2  3  1  0
  3  4  1  0
  4  5  1  0
  5  6  1  0
  6  7  2  0
  7  8  1  0
  8  9  1  0
  9 10  2  0
 10 11  1  0
 11 12  1  0
 12 13  1  0
 13 14  1  0
 14 15  1  0
 15 16  1  0
 16 17  1  0
 17 18  1  0
 18 19  2  0
 18 20  1  0
  1 21  1  0
  1 22  1  0
  1 23  1  0
  2 24  1  0
  2 25  1  0
  3 26  1  0
  3 27  1  0
  4 28  1  0
  4 29  1  0
  5 30  1  0
  5 31  1  0
  6 32  1  0
  7 33  1  0
  8 34  1  0
  8 35  1  0
  9 36  1  0
 10 37  1  0
 11 38  1  0
 11 39  1  0
 12 40  1  0
 12 41  1  0
 13 42  1  0
 13 43  1  0
 14 44  1  0
 14 45  1  0
 15 46  1  0
 15 47  1  0
 16 48  1  0
 16 49  1  0
 17 50  1  0
 17 51  1  0
M  CHG  1  20  -1
M  END
>  <meeko>  (18) 
{"is_sidechain": [false], "free_energy": -5.058, "intermolecular_energy": -9.005, "internal_energy": -1.927}

$$$$
linoleate_run01
     RDKit          3D

 51 50  0  0  0  0  0  0  0  0999 V2000
   49.1000   31.8340   32.6450 C   0  0  0  0  0  0  0  0  0  0  0  0
   50.2700   32.4860   31.9250 C   0  0  0  0  0  0  0  0  0  0  0  0
   50.1350   32.4720   30.4010 C   0  0  0  0  0  0  0  0  0  0  0  0
   48.8700   31.7630   29.9110 C   0  0  0  0  0  0  0  0  0  0  0  0
   48.3750   32.3650   28.5900 C   0  0  0  0  0  0  0  0  0  0  0  0
   46.9230   32.7520   28.5220 C   0  0  0  0  0  0  0  0  0  0  0  0
   46.2330   33.1430   27.4390 C   0  0  0  0  0  0  0  0  0  0  0  0
   46.8380   33.2620   26.0690 C   0  0  0  0  0  0  0  0  0  0  0  0
   46.1490   34.3140   25.2520 C   0  0  0  0  0  0  0  0  0  0  0  0
   46.5540   35.5920   25.1890 C   0  0  0  0  0  0  0  0  0  0  0  0
   47.7490   36.1260   25.9270 C   0  0  0  0  0  0  0  0  0  0  0  0
   47.5250   37.5310   26.4970 C   0  0  0  0  0  0  0  0  0  0  0  0
   48.2420   37.7650   27.8310 C   0  0  0  0  0  0  0  0  0  0  0  0
   47.6610   36.9380   28.9840 C   0  0  0  0  0  0  0  0  0  0  0  0
   48.6140   35.8550   29.4930 C   0  0  0  0  0  0  0  0  0  0  0  0
   48.7610   35.9190   31.0180 C   0  0  0  0  0  0  0  0  0  0  0  0
   47.6610   35.1460   31.7430 C   0  0  0  0  0  0  0  0  0  0  0  0
   46.8890   35.9930   32.7260 C   0  0  0  0  0  0  0  0  0  0  0  0
   47.2870   37.0150   33.2630 O   0  0  0  0  0  0  0  0  0  0  0  0
   45.6500   35.4730   32.9190 O   0  0  0  0  0  0  0  0  0  0  0  0
   49.2468   31.9158   33.7321 H   0  0  0  0  0  0  0  0  0  0  0  0
   48.1662   32.3418   32.3619 H   0  0  0  0  0  0  0  0  0  0  0  0
   49.0406   30.7727   32.3619 H   0  0  0  0  0  0  0  0  0  0  0  0
   50.3444   33.5317   32.2581 H   0  0  0  0  0  0  0  0  0  0  0  0
   51.1685   31.9028   32.1750 H   0  0  0  0  0  0  0  0  0  0  0  0
   50.1132   33.5119   30.0430 H   0  0  0  0  0  0  0  0  0  0  0  0
   50.9956   31.9142   30.0031 H   0  0  0  0  0  0  0  0  0  0  0  0
   49.0923   30.6965   29.7586 H   0  0  0  0  0  0  0  0  0  0  0  0
   48.0830   31.8900   30.6689 H   0  0  0  0  0  0  0  0  0  0  0  0
   48.9698   33.2691   28.3930 H   0  0  0  0  0  0  0  0  0  0  0  0
   48.4939   31.5632   27.8463 H   0  0  0  0  0  0  0  0  0  0  0  0
   46.3627   32.7098   29.4677 H   0  0  0  0  0  0  0  0  0  0  0  0
   45.1679   33.3894   27.5611 H   0  0  0  0  0  0  0  0  0  0  0  0
   47.9008   33.5271   26.1697 H   0  0  0  0  0  0  0  0  0  0  0  0
   46.7216   32.2960   25.5558 H   0  0  0  0  0  0  0  0  0  0  0  0
   45.2615   34.0217   24.6716 H   0  0  0  0  0  0  0  0  0  0  0  0
   45.9783   36.2882   24.5614 H   0  0  0  0  0  0  0  0  0  0  0  0
   47.9807   35.4438   26.7582 H   0  0  0  0  0  0  0  0  0  0  0  0
   48.5770   36.1927   25.2059 H   0  0  0  0  0  0  0  0  0  0  0  0
   47.8951   38.2668   25.7678 H   0  0  0  0  0  0  0  0  0  0  0  0
   46.4463   37.6390   26.6834 H   0  0  0  0  0  0  0  0  0  0  0  0
   49.3022   37.4981   27.7093 H   0  0  0  0  0  0  0  0  0  0  0  0
   48.1093   38.8256   28.0910 H   0  0  0  0  0  0  0  0  0  0  0  0
   47.4273   37.6169   29.8173 H   0  0  0  0  0  0  0  0  0  0  0  0
   46.7648   36.4287   28.6000 H   0  0  0  0  0  0  0  0  0  0  0  0
   48.2187   34.8678   29.2116 H   0  0  0  0  0  0  0  0  0  0  0  0
   49.6028   36.0198   29.0402 H   0  0  0  0  0  0  0  0  0  0  0  0
   49.7355   35.4917   31.2970 H   0  0  0  0  0  0  0  0  0  0  0  0
   48.6823   36.9743   31.3181 H   0  0  0  0  0  0  0  0  0  0  0  0
   46.9586   34.7517   30.9939 H   0  0  0  0  0  0  0  0  0  0  0  0
   48.1481   34.3426   32.3151 H   0  0  0  0  0  0  0  0  0  0  0  0
  1  2  1  0
  2  3  1  0
  3  4  1  0
  4  5  1  0
  5  6  1  0
  6  7  2  0
  7  8  1  0
  8  9  1  0
  9 10  2  0
 10 11  1  0
 11 12  1  0
 12 13  1  0
 13 14  1  0
 14 15  1  0
 15 16  1  0
 16 17  1  0
 17 18  1  0
 18 19  2  0
 18 20  1  0
  1 21  1  0
  1 22  1  0
  1 23  1  0
  2 24  1  0
  2 25  1  0
  3 26  1  0
  3 27  1  0
  4 28  1  0
  4 29  1  0
  5 30  1  0
  5 31  1  0
  6 32  1  0
  7 33  1  0
  8 34  1  0
  8 35  1  0
  9 36  1  0
 10 37  1  0
 11 38  1  0
 11 39  1  0
 12 40  1  0
 12 41  1  0
 13 42  1  0
 13 43  1  0
 14 44  1  0
 14 45  1  0
 15 46  1  0
 15 47  1  0
 16 48  1  0
 16 49  1  0
 17 50  1  0
 17 51  1  0
M  CHG  1  20  -1
M  END
>  <meeko>  (19) 
{"is_sidechain": [false], "free_energy": -5.002, "intermolecular_energy": -8.572, "internal_energy": -2.258}

$$$$
linoleate_run01
     RDKit          3D

 51 50  0  0  0  0  0  0  0  0999 V2000
   44.7780   31.3850   31.7320 C   0  0  0  0  0  0  0  0  0  0  0  0
   44.0720   31.0940   30.4170 C   0  0  0  0  0  0  0  0  0  0  0  0
   44.9900   31.1910   29.1960 C   0  0  0  0  0  0  0  0  0  0  0  0
   46.2990   31.9350   29.4790 C   0  0  0  0  0  0  0  0  0  0  0  0
   46.8850   32.5290   28.1920 C   0  0  0  0  0  0  0  0  0  0  0  0
   46.5110   31.8530   26.9010 C   0  0  0  0  0  0  0  0  0  0  0  0
   46.7510   32.2880   25.6540 C   0  0  0  0  0  0  0  0  0  0  0  0
   47.4600   33.5760   25.3470 C   0  0  0  0  0  0  0  0  0  0  0  0
   46.4910   34.7030   25.1440 C   0  0  0  0  0  0  0  0  0  0  0  0
   46.7380   35.9720   25.5010 C   0  0  0  0  0  0  0  0  0  0  0  0
   48.0180   36.4220   26.1480 C   0  0  0  0  0  0  0  0  0  0  0  0
   47.9690   37.8770   26.6290 C   0  0  0  0  0  0  0  0  0  0  0  0
   48.2880   38.0330   28.1200 C   0  0  0  0  0  0  0  0  0  0  0  0
   47.6550   36.9440   28.9930 C   0  0  0  0  0  0  0  0  0  0  0  0
   48.6840   36.0420   29.6800 C   0  0  0  0  0  0  0  0  0  0  0  0
   48.0110   35.1030   30.6880 C   0  0  0  0  0  0  0  0  0  0  0  0
   48.1430   35.6010   32.1270 C   0  0  0  0  0  0  0  0  0  0  0  0
   46.8650   36.1930   32.6700 C   0  0  0  0  0  0  0  0  0  0  0  0
   46.3610   37.2520   32.3300 O   0  0  0  0  0  0  0  0  0  0  0  0
   46.3160   35.3570   33.5890 O   0  0  0  0  0  0  0  0  0  0  0  0
   44.1191   31.1134   32.5699 H   0  0  0  0  0  0  0  0  0  0  0  0
   45.7051   30.7957   31.7887 H   0  0  0  0  0  0  0  0  0  0  0  0
   45.0206   32.4564   31.7887 H   0  0  0  0  0  0  0  0  0  0  0  0
   43.6587   30.0756   30.4617 H   0  0  0  0  0  0  0  0  0  0  0  0
   43.2893   31.8571   30.2945 H   0  0  0  0  0  0  0  0  0  0  0  0
   45.2332   30.1721   28.8603 H   0  0  0  0  0  0  0  0  0  0  0  0
   44.4499   31.7631   28.4272 H   0  0  0  0  0  0  0  0  0  0  0  0
   46.1030   32.7482   30.1934 H   0  0  0  0  0  0  0  0  0  0  0  0
   47.0241   31.2207   29.8962 H   0  0  0  0  0  0  0  0  0  0  0  0
   46.5534   33.5759   28.1277 H   0  0  0  0  0  0  0  0  0  0  0  0
   47.9730   32.3946   28.2825 H   0  0  0  0  0  0  0  0  0  0  0  0
   45.9807   30.8933   26.9890 H   0  0  0  0  0  0  0  0  0  0  0  0
   46.4101   31.6679   24.8118 H   0  0  0  0  0  0  0  0  0  0  0  0
   48.1273   33.8251   26.1853 H   0  0  0  0  0  0  0  0  0  0  0  0
   48.0321   33.4415   24.4172 H   0  0  0  0  0  0  0  0  0  0  0  0
   45.5221   34.4755   24.6754 H   0  0  0  0  0  0  0  0  0  0  0  0
   45.9602   36.7259   25.3096 H   0  0  0  0  0  0  0  0  0  0  0  0
   48.2197   35.7737   27.0134 H   0  0  0  0  0  0  0  0  0  0  0  0
   48.8112   36.3538   25.3889 H   0  0  0  0  0  0  0  0  0  0  0  0
   48.7017   38.4604   26.0522 H   0  0  0  0  0  0  0  0  0  0  0  0
   46.9407   38.2365   26.4762 H   0  0  0  0  0  0  0  0  0  0  0  0
   49.3796   37.9934   28.2494 H   0  0  0  0  0  0  0  0  0  0  0  0
   47.8666   38.9960   28.4441 H   0  0  0  0  0  0  0  0  0  0  0  0
   47.0441   37.4296   29.7682 H   0  0  0  0  0  0  0  0  0  0  0  0
   47.0535   36.3047   28.3301 H   0  0  0  0  0  0  0  0  0  0  0  0
   49.1997   35.4400   28.9174 H   0  0  0  0  0  0  0  0  0  0  0  0
   49.4002   36.6784   30.2204 H   0  0  0  0  0  0  0  0  0  0  0  0
   46.9427   35.0239   30.4382 H   0  0  0  0  0  0  0  0  0  0  0  0
   48.5135   34.1266   30.6238 H   0  0  0  0  0  0  0  0  0  0  0  0
   48.4347   34.7537   32.7650 H   0  0  0  0  0  0  0  0  0  0  0  0
   48.9001   36.3990   32.1290 H   0  0  0  0  0  0  0  0  0  0  0  0
  1  2  1  0
  2  3  1  0
  3  4  1  0
  4  5  1  0
  5  6  1  0
  6  7  2  0
  7  8  1  0
  8  9  1  0
  9 10  2  0
 10 11  1  0
 11 12  1  0
 12 13  1  0
 13 14  1  0
 14 15  1  0
 15 16  1  0
 16 17  1  0
 17 18  1  0
 18 19  2  0
 18 20  1  0
  1 21  1  0
  1 22  1  0
  1 23  1  0
  2 24  1  0
  2 25  1  0
  3 26  1  0
  3 27  1  0
  4 28  1  0
  4 29  1  0
  5 30  1  0
  5 31  1  0
  6 32  1  0
  7 33  1  0
  8 34  1  0
  8 35  1  0
  9 36  1  0
 10 37  1  0
 11 38  1  0
 11 39  1  0
 12 40  1  0
 12 41  1  0
 13 42  1  0
 13 43  1  0
 14 44  1  0
 14 45  1  0
 15 46  1  0
 15 47  1  0
 16 48  1  0
 16 49  1  0
 17 50  1  0
 17 51  1  0
M  CHG  1  20  -1
M  END
>  <meeko>  (20) 
{"is_sidechain": [false], "free_energy": -4.995, "intermolecular_energy": -9.274, "internal_energy": -1.543}

$$$$
