linoleate_run02
     RDKit          3D

 51 50  0  0  0  0  0  0  0  0999 V2000
   49.5520   31.3630   24.3380 C   0  0  0  0  0  0  0  0  0  0  0  0
   50.2610   32.4890   25.0740 C   0  0  0  0  0  0  0  0  0  0  0  0
   49.3130   33.3980   25.8600 C   0  0  0  0  0  0  0  0  0  0  0  0
   47.9270   32.7840   26.0790 C   0  0  0  0  0  0  0  0  0  0  0  0
   46.9330   33.8330   26.5920 C   0  0  0  0  0  0  0  0  0  0  0  0
   46.4860   34.8830   25.6100 C   0  0  0  0  0  0  0  0  0  0  0  0
   46.9180   36.1510   25.5200 C   0  0  0  0  0  0  0  0  0  0  0  0
   47.9580   36.7390   26.4310 C   0  0  0  0  0  0  0  0  0  0  0  0
   47.3440   37.2850   27.6860 C   0  0  0  0  0  0  0  0  0  0  0  0
   47.6710   36.8670   28.9180 C   0  0  0  0  0  0  0  0  0  0  0  0
   48.6930   35.8010   29.1930 C   0  0  0  0  0  0  0  0  0  0  0  0
   49.2050   35.8160   30.6380 C   0  0  0  0  0  0  0  0  0  0  0  0
   48.6510   34.6680   31.4890 C   0  0  0  0  0  0  0  0  0  0  0  0
   47.2500   34.9470   32.0430 C   0  0  0  0  0  0  0  0  0  0  0  0
   47.1470   36.2770   32.7930 C   0  0  0  0  0  0  0  0  0  0  0  0
   45.7150   36.8230   32.7570 C   0  0  0  0  0  0  0  0  0  0  0  0
   44.7110   35.8720   33.4070 C   0  0  0  0  0  0  0  0  0  0  0  0
   43.5360   36.5850   34.0310 C   0  0  0  0  0  0  0  0  0  0  0  0
   42.3570   36.3080   33.8700 O   0  0  0  0  0  0  0  0  0  0  0  0
   43.9720   37.5850   34.8400 O   0  0  0  0  0  0  0  0  0  0  0  0
   49.1136   30.6667   25.0680 H   0  0  0  0  0  0  0  0  0  0  0  0
   48.7547   31.7824   23.7068 H   0  0  0  0  0  0  0  0  0  0  0  0
   50.2748   30.8253   23.7068 H   0  0  0  0  0  0  0  0  0  0  0  0
   50.9811   32.0457   25.7775 H   0  0  0  0  0  0  0  0  0  0  0  0
   50.7512   33.1141   24.3131 H   0  0  0  0  0  0  0  0  0  0  0  0
   49.7624   33.6048   26.8425 H   0  0  0  0  0  0  0  0  0  0  0  0
   49.1734   34.3137   25.2667 H   0  0  0  0  0  0  0  0  0  0  0  0
   47.5596   32.3771   25.1253 H   0  0  0  0  0  0  0  0  0  0  0  0
   48.0132   31.9868   26.8320 H   0  0  0  0  0  0  0  0  0  0  0  0
   46.0361   33.2994   26.9397 H   0  0  0  0  0  0  0  0  0  0  0  0
   47.4748   34.3837   27.3751 H   0  0  0  0  0  0  0  0  0  0  0  0
   45.7185   34.5766   24.8840 H   0  0  0  0  0  0  0  0  0  0  0  0
   46.4876   36.7935   24.7377 H   0  0  0  0  0  0  0  0  0  0  0  0
   48.6825   35.9558   26.6989 H   0  0  0  0  0  0  0  0  0  0  0  0
   48.4534   37.5659   25.9010 H   0  0  0  0  0  0  0  0  0  0  0  0
   46.5823   38.0729   27.5906 H   0  0  0  0  0  0  0  0  0  0  0  0
   47.1619   37.3312   29.7755 H   0  0  0  0  0  0  0  0  0  0  0  0
   48.2376   34.8198   28.9933 H   0  0  0  0  0  0  0  0  0  0  0  0
   49.5548   35.9966   28.5380 H   0  0  0  0  0  0  0  0  0  0  0  0
   50.3022   35.7398   30.6205 H   0  0  0  0  0  0  0  0  0  0  0  0
   48.8622   36.7558   31.0955 H   0  0  0  0  0  0  0  0  0  0  0  0
   48.6066   33.7619   30.8669 H   0  0  0  0  0  0  0  0  0  0  0  0
   49.3242   34.5461   32.3504 H   0  0  0  0  0  0  0  0  0  0  0  0
   46.5400   34.9644   31.2030 H   0  0  0  0  0  0  0  0  0  0  0  0
   47.0210   34.1487   32.7643 H   0  0  0  0  0  0  0  0  0  0  0  0
   47.4462   36.1227   33.8402 H   0  0  0  0  0  0  0  0  0  0  0  0
   47.8104   37.0055   32.3040 H   0  0  0  0  0  0  0  0  0  0  0  0
   45.6898   37.7832   33.2930 H   0  0  0  0  0  0  0  0  0  0  0  0
   45.4285   36.9420   31.7017 H   0  0  0  0  0  0  0  0  0  0  0  0
   44.3334   35.1827   32.6374 H   0  0  0  0  0  0  0  0  0  0  0  0
   45.2378   35.3413   34.2137 H   0  0  0  0  0  0  0  0  0  0  0  0
  1  2  1  0
  2  3  1  0
  3  4  1  0
  4  5  1  0
  5  6  1  0
  6  7  2  0
  7  8  1  0
  8  9  1  0
  9 10  2  0
 10 11  1  0
 11 12  1  0
 12 13  1  0
 13 14  1  0
 14 15  1  0
 15 16  1  0
 16 17  1  0
 17 18  1  0
 18 19  2  0
 18 20  1  0
  1 21  1  0
  1 22  1  0
  1 23  1  0
  2 24  1  0
  2 25  1  0
  3 26  1  0
  3 27  1  0
  4 28  1  0
  4 29  1  0
  5 30  1  0
  5 31  1  0
  6 32  1  0
  7 33  1  0
  8 34  1  0
  8 35  1  0
  9 36  1  0
 10 37  1  0
 11 38  1  0
 11 39  1  0
 12 40  1  0
 12 41  1  0
 13 42  1  0
 13 43  1  0
 14 44  1  0
 14 45  1  0
 15 46  1  0
 15 47  1  0
 16 48  1  0
 16 49  1  0
 17 50  1  0
 17 51  1  0
M  CHG  1  20  -1
M  END
>  <meeko>  (1) 
{"is_sidechain": [false], "free_energy": -5.692, "intermolecular_energy": -10.351, "internal_energy": -1.566}

$$$$
linoleate_run02
     RDKit          3D

 51 50  0  0  0  0  0  0  0  0999 V2000
   53.6080   33.0140   25.4220 C   0  0  0  0  0  0  0  0  0  0  0  0
   53.1030   31.7200   24.8040 C   0  0  0  0  0  0  0  0  0  0  0  0
   51.5780   31.6460   24.7010 C   0  0  0  0  0  0  0  0  0  0  0  0
   50.8580   32.6010   25.6580 C   0  0  0  0  0  0  0  0  0  0  0  0
   49.4740   32.9840   25.1200 C   0  0  0  0  0  0  0  0  0  0  0  0
   48.3390   32.0510   25.4440 C   0  0  0  0  0  0  0  0  0  0  0  0
   47.2440   32.3210   26.1720 C   0  0  0  0  0  0  0  0  0  0  0  0
   46.9780   33.6580   26.8050 C   0  0  0  0  0  0  0  0  0  0  0  0
   46.2500   34.5750   25.8670 C   0  0  0  0  0  0  0  0  0  0  0  0
   46.7350   35.7560   25.4540 C   0  0  0  0  0  0  0  0  0  0  0  0
   48.0680   36.3040   25.8780 C   0  0  0  0  0  0  0  0  0  0  0  0
   48.0480   37.8190   26.1120 C   0  0  0  0  0  0  0  0  0  0  0  0
   47.9270   38.2020   27.5910 C   0  0  0  0  0  0  0  0  0  0  0  0
   48.4440   37.1170   28.5430 C   0  0  0  0  0  0  0  0  0  0  0  0
   47.4460   36.7510   29.6450 C   0  0  0  0  0  0  0  0  0  0  0  0
   47.7960   35.4000   30.2810 C   0  0  0  0  0  0  0  0  0  0  0  0
   48.3030   35.5450   31.7150 C   0  0  0  0  0  0  0  0  0  0  0  0
   47.2350   36.0020   32.6790 C   0  0  0  0  0  0  0  0  0  0  0  0
   47.2560   37.0270   33.3430 O   0  0  0  0  0  0  0  0  0  0  0  0
   46.2060   35.1170   32.6900 O   0  0  0  0  0  0  0  0  0  0  0  0
   53.5765   32.9334   26.5186 H   0  0  0  0  0  0  0  0  0  0  0  0
   54.6431   33.1959   25.0973 H   0  0  0  0  0  0  0  0  0  0  0  0
   52.9697   33.8490   25.0973 H   0  0  0  0  0  0  0  0  0  0  0  0
   53.5249   31.6297   23.7921 H   0  0  0  0  0  0  0  0  0  0  0  0
   53.4224   30.9003   25.4644 H   0  0  0  0  0  0  0  0  0  0  0  0
   51.2852   31.8977   23.6710 H   0  0  0  0  0  0  0  0  0  0  0  0
   51.2824   30.6234   24.9784 H   0  0  0  0  0  0  0  0  0  0  0  0
   50.7400   32.1091   26.6348 H   0  0  0  0  0  0  0  0  0  0  0  0
   51.4599   33.5165   25.7557 H   0  0  0  0  0  0  0  0  0  0  0  0
   49.2195   33.9727   25.5296 H   0  0  0  0  0  0  0  0  0  0  0  0
   49.5711   32.9502   24.0248 H   0  0  0  0  0  0  0  0  0  0  0  0
   48.4152   31.0315   25.0381 H   0  0  0  0  0  0  0  0  0  0  0  0
   46.5020   31.5213   26.3128 H   0  0  0  0  0  0  0  0  0  0  0  0
   46.3666   33.5109   27.7075 H   0  0  0  0  0  0  0  0  0  0  0  0
   47.9444   34.1188   27.0576 H   0  0  0  0  0  0  0  0  0  0  0  0
   45.2627   34.2615   25.4969 H   0  0  0  0  0  0  0  0  0  0  0  0
   46.1219   36.3568   24.7661 H   0  0  0  0  0  0  0  0  0  0  0  0
   48.3686   35.8092   26.8133 H   0  0  0  0  0  0  0  0  0  0  0  0
   48.7784   36.1074   25.0615 H   0  0  0  0  0  0  0  0  0  0  0  0
   48.9812   38.2459   25.7159 H   0  0  0  0  0  0  0  0  0  0  0  0
   47.1600   38.2164   25.5986 H   0  0  0  0  0  0  0  0  0  0  0  0
   48.5062   39.1214   27.7620 H   0  0  0  0  0  0  0  0  0  0  0  0
   46.8569   38.3402   27.8051 H   0  0  0  0  0  0  0  0  0  0  0  0
   48.6626   36.2129   27.9558 H   0  0  0  0  0  0  0  0  0  0  0  0
   49.3413   37.5182   29.0369 H   0  0  0  0  0  0  0  0  0  0  0  0
   47.4669   37.5298   30.4216 H   0  0  0  0  0  0  0  0  0  0  0  0
   46.4436   36.6773   29.1979 H   0  0  0  0  0  0  0  0  0  0  0  0
   46.8954   34.7685   30.2869 H   0  0  0  0  0  0  0  0  0  0  0  0
   48.6019   34.9474   29.6846 H   0  0  0  0  0  0  0  0  0  0  0  0
   48.6839   34.5695   32.0517 H   0  0  0  0  0  0  0  0  0  0  0  0
   49.0888   36.3148   31.7081 H   0  0  0  0  0  0  0  0  0  0  0  0
  1  2  1  0
  2  3  1  0
  3  4  1  0
  4  5  1  0
  5  6  1  0
  6  7  2  0
  7  8  1  0
  8  9  1  0
  9 10  2  0
 10 11  1  0
 11 12  1  0
 12 13  1  0
 13 14  1  0
 14 15  1  0
 15 16  1  0
 16 17  1  0
 17 18  1  0
 18 19  2  0
 18 20  1  0
  1 21  1  0
  1 22  1  0
  1 23  1  0
  2 24  1  0
  2 25  1  0
  3 26  1  0
  3 27  1  0
  4 28  1  0
  4 29  1  0
  5 30  1  0
  5 31  1  0
  6 32  1  0
  7 33  1  0
  8 34  1  0
  8 35  1  0
  9 36  1  0
 10 37  1  0
 11 38  1  0
 11 39  1  0
 12 40  1  0
 12 41  1  0
 13 42  1  0
 13 43  1  0
 14 44  1  0
 14 45  1  0
 15 46  1  0
 15 47  1  0
 16 48  1  0
 16 49  1  0
 17 50  1  0
 17 51  1  0
M  CHG  1  20  -1
M  END
>  <meeko>  (2) 
{"is_sidechain": [false], "free_energy": -5.6, "intermolecular_energy": -10.113, "internal_energy": -1.637}

$$$$
linoleate_run02
     RDKit          3D

 51 50  0  0  0  0  0  0  0  0999 V2000
   50.1850   32.9130   25.4770 C   0  0  0  0  0  0  0  0  0  0  0  0
   49.0660   32.2720   24.6720 C   0  0  0  0  0  0  0  0  0  0  0  0
   47.8750   31.8300   25.5250 C   0  0  0  0  0  0  0  0  0  0  0  0
   47.7240   32.6360   26.8190 C   0  0  0  0  0  0  0  0  0  0  0  0
   46.3930   33.3970   26.8440 C   0  0  0  0  0  0  0  0  0  0  0  0
   46.0400   34.1870   25.6120 C   0  0  0  0  0  0  0  0  0  0  0  0
   46.6910   35.2490   25.1110 C   0  0  0  0  0  0  0  0  0  0  0  0
   47.9250   35.8360   25.7360 C   0  0  0  0  0  0  0  0  0  0  0  0
   47.7530   37.2980   26.0250 C   0  0  0  0  0  0  0  0  0  0  0  0
   47.4640   37.7870   27.2400 C   0  0  0  0  0  0  0  0  0  0  0  0
   47.2780   36.9320   28.4620 C   0  0  0  0  0  0  0  0  0  0  0  0
   48.6000   36.5600   29.1420 C   0  0  0  0  0  0  0  0  0  0  0  0
   48.7910   35.0480   29.3090 C   0  0  0  0  0  0  0  0  0  0  0  0
   48.4350   34.5440   30.7120 C   0  0  0  0  0  0  0  0  0  0  0  0
   49.1470   35.3080   31.8300 C   0  0  0  0  0  0  0  0  0  0  0  0
   48.2450   35.4520   33.0620 C   0  0  0  0  0  0  0  0  0  0  0  0
   46.7590   35.3870   32.7090 C   0  0  0  0  0  0  0  0  0  0  0  0
   46.0350   36.6890   32.9490 C   0  0  0  0  0  0  0  0  0  0  0  0
   44.8420   36.8910   32.7800 O   0  0  0  0  0  0  0  0  0  0  0  0
   46.8990   37.6250   33.4170 O   0  0  0  0  0  0  0  0  0  0  0  0
   49.9784   32.7946   26.5509 H   0  0  0  0  0  0  0  0  0  0  0  0
   51.1396   32.4248   25.2313 H   0  0  0  0  0  0  0  0  0  0  0  0
   50.2467   33.9834   25.2313 H   0  0  0  0  0  0  0  0  0  0  0  0
   48.7104   33.0009   23.9288 H   0  0  0  0  0  0  0  0  0  0  0  0
   49.4818   31.3674   24.2041 H   0  0  0  0  0  0  0  0  0  0  0  0
   46.9569   31.9484   24.9308 H   0  0  0  0  0  0  0  0  0  0  0  0
   48.0508   30.7828   25.8121 H   0  0  0  0  0  0  0  0  0  0  0  0
   47.7607   31.9484   27.6768 H   0  0  0  0  0  0  0  0  0  0  0  0
   48.5448   33.3663   26.8732 H   0  0  0  0  0  0  0  0  0  0  0  0
   45.5920   32.6613   27.0085 H   0  0  0  0  0  0  0  0  0  0  0  0
   46.5035   34.1444   27.6435 H   0  0  0  0  0  0  0  0  0  0  0  0
   45.1478   33.8568   25.0598 H   0  0  0  0  0  0  0  0  0  0  0  0
   46.3002   35.7142   24.1940 H   0  0  0  0  0  0  0  0  0  0  0  0
   48.1344   35.3077   26.6779 H   0  0  0  0  0  0  0  0  0  0  0  0
   48.7589   35.7200   25.0280 H   0  0  0  0  0  0  0  0  0  0  0  0
   47.8705   38.0088   25.1938 H   0  0  0  0  0  0  0  0  0  0  0  0
   47.3570   38.8764   27.3483 H   0  0  0  0  0  0  0  0  0  0  0  0
   46.6561   37.4826   29.1832 H   0  0  0  0  0  0  0  0  0  0  0  0
   46.8010   35.9954   28.1376 H   0  0  0  0  0  0  0  0  0  0  0  0
   49.4282   36.9515   28.5331 H   0  0  0  0  0  0  0  0  0  0  0  0
   48.5831   36.9998   30.1501 H   0  0  0  0  0  0  0  0  0  0  0  0
   48.1495   34.5322   28.5794 H   0  0  0  0  0  0  0  0  0  0  0  0
   49.8577   34.8341   29.1466 H   0  0  0  0  0  0  0  0  0  0  0  0
   47.3493   34.6481   30.8550 H   0  0  0  0  0  0  0  0  0  0  0  0
   48.7636   33.4961   30.7740 H   0  0  0  0  0  0  0  0  0  0  0  0
   50.0586   34.7619   32.1141 H   0  0  0  0  0  0  0  0  0  0  0  0
   49.3976   36.3136   31.4612 H   0  0  0  0  0  0  0  0  0  0  0  0
   48.4765   34.6390   33.7659 H   0  0  0  0  0  0  0  0  0  0  0  0
   48.4406   36.4390   33.5065 H   0  0  0  0  0  0  0  0  0  0  0  0
   46.6633   35.1244   31.6451 H   0  0  0  0  0  0  0  0  0  0  0  0
   46.2997   34.6314   33.3633 H   0  0  0  0  0  0  0  0  0  0  0  0
  1  2  1  0
  2  3  1  0
  3  4  1  0
  4  5  1  0
  5  6  1  0
  6  7  2  0
  7  8  1  0
  8  9  1  0
  9 10  2  0
 10 11  1  0
 11 12  1  0
 12 13  1  0
 13 14  1  0
 14 15  1  0
 15 16  1  0
 16 17  1  0
 17 18  1  0
 18 19  2  0
 18 20  1  0
  1 21  1  0
  1 22  1  0
  1 23  1  0
  2 24  1  0
  2 25  1  0
  3 26  1  0
  3 27  1  0
  4 28  1  0
  4 29  1  0
  5 30  1  0
  5 31  1  0
  6 32  1  0
  7 33  1  0
  8 34  1  0
  8 35  1  0
  9 36  1  0
 10 37  1  0
 11 38  1  0
 11 39  1  0
 12 40  1  0
 12 41  1  0
 13 42  1  0
 13 43  1  0
 14 44  1  0
 14 45  1  0
 15 46  1  0
 15 47  1  0
 16 48  1  0
 16 49  1  0
 17 50  1  0
 17 51  1  0
M  CHG  1  20  -1
M  END
>  <meeko>  (3) 
{"is_sidechain": [false], "free_energy": -5.561, "intermolecular_energy": -9.631, "internal_energy": -2.047}

$$$$
linoleate_run02
     RDKit          3D

 51 50  0  0  0  0  0  0  0  0999 V2000
   49.5130   31.6920   24.4250 C   0  0  0  0  0  0  0  0  0  0  0  0
   49.8370   32.7840   25.4330 C   0  0  0  0  0  0  0  0  0  0  0  0
   50.1670   32.2490   26.8290 C   0  0  0  0  0  0  0  0  0  0  0  0
   49.4360   32.9920   27.9510 C   0  0  0  0  0  0  0  0  0  0  0  0
   48.4290   32.0740   28.6560 C   0  0  0  0  0  0  0  0  0  0  0  0
   47.3340   31.4880   27.8060 C   0  0  0  0  0  0  0  0  0  0  0  0
   46.4000   32.1530   27.1080 C   0  0  0  0  0  0  0  0  0  0  0  0
   46.3030   33.6520   27.0710 C   0  0  0  0  0  0  0  0  0  0  0  0
   46.1630   34.1600   25.6660 C   0  0  0  0  0  0  0  0  0  0  0  0
   46.8930   35.1660   25.1620 C   0  0  0  0  0  0  0  0  0  0  0  0
   47.9430   35.9060   25.9410 C   0  0  0  0  0  0  0  0  0  0  0  0
   47.5480   37.3530   26.2580 C   0  0  0  0  0  0  0  0  0  0  0  0
   48.0890   37.8480   27.6040 C   0  0  0  0  0  0  0  0  0  0  0  0
   47.4920   37.1080   28.8060 C   0  0  0  0  0  0  0  0  0  0  0  0
   48.5150   36.2620   29.5680 C   0  0  0  0  0  0  0  0  0  0  0  0
   47.8240   35.3030   30.5440 C   0  0  0  0  0  0  0  0  0  0  0  0
   48.1910   35.5880   32.0000 C   0  0  0  0  0  0  0  0  0  0  0  0
   47.0430   36.1510   32.8030 C   0  0  0  0  0  0  0  0  0  0  0  0
   47.0000   37.2550   33.3220 O   0  0  0  0  0  0  0  0  0  0  0  0
   46.0230   35.2560   32.8480 O   0  0  0  0  0  0  0  0  0  0  0  0
   49.2394   30.7699   24.9587 H   0  0  0  0  0  0  0  0  0  0  0  0
   48.6716   32.0137   23.7937 H   0  0  0  0  0  0  0  0  0  0  0  0
   50.3937   31.5027   23.7937 H   0  0  0  0  0  0  0  0  0  0  0  0
   50.7037   33.3521   25.0641 H   0  0  0  0  0  0  0  0  0  0  0  0
   48.9382   33.4105   25.5310 H   0  0  0  0  0  0  0  0  0  0  0  0
   49.8842   31.1868   26.8717 H   0  0  0  0  0  0  0  0  0  0  0  0
   51.2452   32.3977   26.9884 H   0  0  0  0  0  0  0  0  0  0  0  0
   50.1730   33.3483   28.6857 H   0  0  0  0  0  0  0  0  0  0  0  0
   48.8887   33.8387   27.5109 H   0  0  0  0  0  0  0  0  0  0  0  0
   48.9923   31.2378   29.0959 H   0  0  0  0  0  0  0  0  0  0  0  0
   47.9144   32.7174   29.3849 H   0  0  0  0  0  0  0  0  0  0  0  0
   47.2946   30.3901   27.7504 H   0  0  0  0  0  0  0  0  0  0  0  0
   45.6665   31.5694   26.5324 H   0  0  0  0  0  0  0  0  0  0  0  0
   45.4255   33.9678   27.6543 H   0  0  0  0  0  0  0  0  0  0  0  0
   47.2276   34.0681   27.4977 H   0  0  0  0  0  0  0  0  0  0  0  0
   45.4196   33.6802   25.0124 H   0  0  0  0  0  0  0  0  0  0  0  0
   46.7127   35.4662   24.1192 H   0  0  0  0  0  0  0  0  0  0  0  0
   48.1156   35.3746   26.8885 H   0  0  0  0  0  0  0  0  0  0  0  0
   48.8491   35.9421   25.3183 H   0  0  0  0  0  0  0  0  0  0  0  0
   47.9405   38.0042   25.4631 H   0  0  0  0  0  0  0  0  0  0  0  0
   46.4500   37.3858   26.3162 H   0  0  0  0  0  0  0  0  0  0  0  0
   49.1800   37.7082   27.6146 H   0  0  0  0  0  0  0  0  0  0  0  0
   47.8060   38.9067   27.6996 H   0  0  0  0  0  0  0  0  0  0  0  0
   47.0692   37.8511   29.4981 H   0  0  0  0  0  0  0  0  0  0  0  0
   46.7270   36.4201   28.4167 H   0  0  0  0  0  0  0  0  0  0  0  0
   49.1050   35.6769   28.8472 H   0  0  0  0  0  0  0  0  0  0  0  0
   49.1652   36.9368   30.1441 H   0  0  0  0  0  0  0  0  0  0  0  0
   46.7349   35.4051   30.4279 H   0  0  0  0  0  0  0  0  0  0  0  0
   48.1612   34.2831   30.3069 H   0  0  0  0  0  0  0  0  0  0  0  0
   48.5178   34.6480   32.4687 H   0  0  0  0  0  0  0  0  0  0  0  0
   48.9885   36.3456   31.9940 H   0  0  0  0  0  0  0  0  0  0  0  0
  1  2  1  0
  2  3  1  0
  3  4  1  0
  4  5  1  0
  5  6  1  0
  6  7  2  0
  7  8  1  0
  8  9  1  0
  9 10  2  0
 10 11  1  0
 11 12  1  0
 12 13  1  0
 13 14  1  0
 14 15  1  0
 15 16  1  0
 16 17  1  0
 17 18  1  0
 18 19  2  0
 18 20  1  0
  1 21  1  0
  1 22  1  0
  1 23  1  0
  2 24  1  0
  2 25  1  0
  3 26  1  0
  3 27  1  0
  4 28  1  0
  4 29  1  0
  5 30  1  0
  5 31  1  0
  6 32  1  0
  7 33  1  0
  8 34  1  0
  8 35  1  0
  9 36  1  0
 10 37  1  0
 11 38  1  0
 11 39  1  0
 12 40  1  0
 12 41  1  0
 13 42  1  0
 13 43  1  0
 14 44  1  0
 14 45  1  0
 15 46  1  0
 15 47  1  0
 16 48  1  0
 16 49  1  0
 17 50  1  0
 17 51  1  0
M  CHG  1  20  -1
M  END
>  <meeko>  (4) 
{"is_sidechain": [false], "free_energy": -5.54, "intermolecular_energy": -9.214, "internal_energy": -2.426}

$$$$
linoleate_run02
     RDKit          3D

 51 50  0  0  0  0  0  0  0  0999 V2000
   46.6750   32.2550   28.4400 C   0  0  0  0  0  0  0  0  0  0  0  0
   46.5710   33.5090   27.5850 C   0  0  0  0  0  0  0  0  0  0  0  0
   46.3830   33.2180   26.0950 C   0  0  0  0  0  0  0  0  0  0  0  0
   46.6820   34.4250   25.1990 C   0  0  0  0  0  0  0  0  0  0  0  0
   47.6290   35.4090   25.8960 C   0  0  0  0  0  0  0  0  0  0  0  0
   47.2160   36.8570   25.9040 C   0  0  0  0  0  0  0  0  0  0  0  0
   47.5130   37.7830   26.8290 C   0  0  0  0  0  0  0  0  0  0  0  0
   48.3370   37.5000   28.0520 C   0  0  0  0  0  0  0  0  0  0  0  0
   47.4860   37.0180   29.1900 C   0  0  0  0  0  0  0  0  0  0  0  0
   47.8490   36.0340   30.0270 C   0  0  0  0  0  0  0  0  0  0  0  0
   49.1530   35.2950   29.9290 C   0  0  0  0  0  0  0  0  0  0  0  0
   50.1420   35.6700   31.0390 C   0  0  0  0  0  0  0  0  0  0  0  0
   50.2380   34.6150   32.1470 C   0  0  0  0  0  0  0  0  0  0  0  0
   49.3130   34.8980   33.3360 C   0  0  0  0  0  0  0  0  0  0  0  0
   49.0610   33.6700   34.2140 C   0  0  0  0  0  0  0  0  0  0  0  0
   47.5620   33.3720   34.3310 C   0  0  0  0  0  0  0  0  0  0  0  0
   46.7190   34.2460   33.4020 C   0  0  0  0  0  0  0  0  0  0  0  0
   45.3120   34.4620   33.9050 C   0  0  0  0  0  0  0  0  0  0  0  0
   44.8640   34.0790   34.9740 O   0  0  0  0  0  0  0  0  0  0  0  0
   44.5990   35.1820   33.0020 O   0  0  0  0  0  0  0  0  0  0  0  0
   46.6519   32.5336   29.5039 H   0  0  0  0  0  0  0  0  0  0  0  0
   45.8291   31.5881   28.2172 H   0  0  0  0  0  0  0  0  0  0  0  0
   47.6192   31.7366   28.2172 H   0  0  0  0  0  0  0  0  0  0  0  0
   45.7115   34.0991   27.9356 H   0  0  0  0  0  0  0  0  0  0  0  0
   47.5214   34.0525   27.6910 H   0  0  0  0  0  0  0  0  0  0  0  0
   47.0582   32.3971   25.8117 H   0  0  0  0  0  0  0  0  0  0  0  0
   45.3254   32.9553   25.9453 H   0  0  0  0  0  0  0  0  0  0  0  0
   47.1506   34.0738   24.2678 H   0  0  0  0  0  0  0  0  0  0  0  0
   45.7359   34.9434   24.9842 H   0  0  0  0  0  0  0  0  0  0  0  0
   47.7329   35.0866   26.9425 H   0  0  0  0  0  0  0  0  0  0  0  0
   48.5595   35.3778   25.3101 H   0  0  0  0  0  0  0  0  0  0  0  0
   46.6016   37.1939   25.0561 H   0  0  0  0  0  0  0  0  0  0  0  0
   47.1322   38.8046   26.6833 H   0  0  0  0  0  0  0  0  0  0  0  0
   49.0815   36.7271   27.8103 H   0  0  0  0  0  0  0  0  0  0  0  0
   48.8283   38.4346   28.3606 H   0  0  0  0  0  0  0  0  0  0  0  0
   46.5091   37.4986   29.3470 H   0  0  0  0  0  0  0  0  0  0  0  0
   47.1522   35.7526   30.8303 H   0  0  0  0  0  0  0  0  0  0  0  0
   48.9493   34.2158   29.9915 H   0  0  0  0  0  0  0  0  0  0  0  0
   49.6157   35.5720   28.9703 H   0  0  0  0  0  0  0  0  0  0  0  0
   51.1384   35.7972   30.5906 H   0  0  0  0  0  0  0  0  0  0  0  0
   49.7750   36.5974   31.5029 H   0  0  0  0  0  0  0  0  0  0  0  0
   49.9702   33.6366   31.7215 H   0  0  0  0  0  0  0  0  0  0  0  0
   51.2705   34.6339   32.5260 H   0  0  0  0  0  0  0  0  0  0  0  0
   49.7718   35.6821   33.9562 H   0  0  0  0  0  0  0  0  0  0  0  0
   48.3412   35.2092   32.9253 H   0  0  0  0  0  0  0  0  0  0  0  0
   49.5662   32.8003   33.7685 H   0  0  0  0  0  0  0  0  0  0  0  0
   49.4558   33.8737   35.2203 H   0  0  0  0  0  0  0  0  0  0  0  0
   47.3908   32.3162   34.0742 H   0  0  0  0  0  0  0  0  0  0  0  0
   47.2567   33.5904   35.3650 H   0  0  0  0  0  0  0  0  0  0  0  0
   47.2094   35.2257   33.3030 H   0  0  0  0  0  0  0  0  0  0  0  0
   46.6451   33.7222   32.4375 H   0  0  0  0  0  0  0  0  0  0  0  0
  1  2  1  0
  2  3  1  0
  3  4  1  0
  4  5  1  0
  5  6  1  0
  6  7  2  0
  7  8  1  0
  8  9  1  0
  9 10  2  0
 10 11  1  0
 11 12  1  0
 12 13  1  0
 13 14  1  0
 14 15  1  0
 15 16  1  0
 16 17  1  0
 17 18  1  0
 18 19  2  0
 18 20  1  0
  1 21  1  0
  1 22  1  0
  1 23  1  0
  2 24  1  0
  2 25  1  0
  3 26  1  0
  3 27  1  0
  4 28  1  0
  4 29  1  0
  5 30  1  0
  5 31  1  0
  6 32  1  0
  7 33  1  0
  8 34  1  0
  8 35  1  0
  9 36  1  0
 10 37  1  0
 11 38  1  0
 11 39  1  0
 12 40  1  0
 12 41  1  0
 13 42  1  0
 13 43  1  0
 14 44  1  0
 14 45  1  0
 15 46  1  0
 15 47  1  0
 16 48  1  0
 16 49  1  0
 17 50  1  0
 17 51  1  0
M  CHG  1  20  -1
M  END
>  <meeko>  (5) 
{"is_sidechain": [false], "free_energy": -5.492, "intermolecular_energy": -9.785, "internal_energy": -1.768}

$$$$
linoleate_run02
     RDKit          3D

 51 50  0  0  0  0  0  0  0  0999 V2000
   50.1190   32.9120   25.6430 C   0  0  0  0  0  0  0  0  0  0  0  0
   49.0140   32.3110   24.7880 C   0  0  0  0  0  0  0  0  0  0  0  0
   47.8010   31.8450   25.5980 C   0  0  0  0  0  0  0  0  0  0  0  0
   47.7110   32.4930   26.9820 C   0  0  0  0  0  0  0  0  0  0  0  0
   46.4780   33.4000   27.0890 C   0  0  0  0  0  0  0  0  0  0  0  0
   46.0620   34.1270   25.8390 C   0  0  0  0  0  0  0  0  0  0  0  0
   46.6340   35.2160   25.3010 C   0  0  0  0  0  0  0  0  0  0  0  0
   47.8300   35.9040   25.8960 C   0  0  0  0  0  0  0  0  0  0  0  0
   47.6560   37.3940   25.9120 C   0  0  0  0  0  0  0  0  0  0  0  0
   47.9240   38.1640   26.9780 C   0  0  0  0  0  0  0  0  0  0  0  0
   48.4330   37.6290   28.2860 C   0  0  0  0  0  0  0  0  0  0  0  0
   47.3120   37.1880   29.2330 C   0  0  0  0  0  0  0  0  0  0  0  0
   47.6690   35.9500   30.0620 C   0  0  0  0  0  0  0  0  0  0  0  0
   48.8110   35.1250   29.4570 C   0  0  0  0  0  0  0  0  0  0  0  0
   49.0820   33.8210   30.2110 C   0  0  0  0  0  0  0  0  0  0  0  0
   49.4700   34.0950   31.6690 C   0  0  0  0  0  0  0  0  0  0  0  0
   48.5950   33.3280   32.6600 C   0  0  0  0  0  0  0  0  0  0  0  0
   47.2720   34.0040   32.9290 C   0  0  0  0  0  0  0  0  0  0  0  0
   46.1810   33.6370   32.5220 O   0  0  0  0  0  0  0  0  0  0  0  0
   47.4540   35.0850   33.7300 O   0  0  0  0  0  0  0  0  0  0  0  0
   49.8732   32.7783   26.7068 H   0  0  0  0  0  0  0  0  0  0  0  0
   51.0706   32.4072   25.4203 H   0  0  0  0  0  0  0  0  0  0  0  0
   50.2123   33.9852   25.4203 H   0  0  0  0  0  0  0  0  0  0  0  0
   48.6798   33.0708   24.0662 H   0  0  0  0  0  0  0  0  0  0  0  0
   49.4340   31.4226   24.2936 H   0  0  0  0  0  0  0  0  0  0  0  0
   46.8891   32.0946   25.0358 H   0  0  0  0  0  0  0  0  0  0  0  0
   47.9095   30.7613   25.7524 H   0  0  0  0  0  0  0  0  0  0  0  0
   47.6431   31.7032   27.7446 H   0  0  0  0  0  0  0  0  0  0  0  0
   48.6103   33.1065   27.1393 H   0  0  0  0  0  0  0  0  0  0  0  0
   45.6312   32.7747   27.4081 H   0  0  0  0  0  0  0  0  0  0  0  0
   46.7612   34.1891   27.8011 H   0  0  0  0  0  0  0  0  0  0  0  0
   45.1904   33.7201   25.3055 H   0  0  0  0  0  0  0  0  0  0  0  0
   46.2042   35.6264   24.3753 H   0  0  0  0  0  0  0  0  0  0  0  0
   47.9696   35.5494   26.9279 H   0  0  0  0  0  0  0  0  0  0  0  0
   48.7081   35.6658   25.2777 H   0  0  0  0  0  0  0  0  0  0  0  0
   47.2878   37.8832   24.9981 H   0  0  0  0  0  0  0  0  0  0  0  0
   47.7617   39.2483   26.8888 H   0  0  0  0  0  0  0  0  0  0  0  0
   49.0797   36.7629   28.0819 H   0  0  0  0  0  0  0  0  0  0  0  0
   48.9799   38.4439   28.7828 H   0  0  0  0  0  0  0  0  0  0  0  0
   47.0906   38.0169   29.9214 H   0  0  0  0  0  0  0  0  0  0  0  0
   46.4452   36.9231   28.6097 H   0  0  0  0  0  0  0  0  0  0  0  0
   47.9698   36.2780   31.0679 H   0  0  0  0  0  0  0  0  0  0  0  0
   46.7780   35.3054   30.0860 H   0  0  0  0  0  0  0  0  0  0  0  0
   48.5510   34.8792   28.4168 H   0  0  0  0  0  0  0  0  0  0  0  0
   49.7239   35.7351   29.5232 H   0  0  0  0  0  0  0  0  0  0  0  0
   48.1743   33.1999   30.1917 H   0  0  0  0  0  0  0  0  0  0  0  0
   49.9176   33.3012   29.7195 H   0  0  0  0  0  0  0  0  0  0  0  0
   50.5179   33.7953   31.8178 H   0  0  0  0  0  0  0  0  0  0  0  0
   49.3267   35.1692   31.8574 H   0  0  0  0  0  0  0  0  0  0  0  0
   48.3992   32.3257   32.2512 H   0  0  0  0  0  0  0  0  0  0  0  0
   49.1409   33.2845   33.6140 H   0  0  0  0  0  0  0  0  0  0  0  0
  1  2  1  0
  2  3  1  0
  3  4  1  0
  4  5  1  0
  5  6  1  0
  6  7  2  0
  7  8  1  0
  8  9  1  0
  9 10  2  0
 10 11  1  0
 11 12  1  0
 12 13  1  0
 13 14  1  0
 14 15  1  0
 15 16  1  0
 16 17  1  0
 17 18  1  0
 18 19  2  0
 18 20  1  0
  1 21  1  0
  1 22  1  0
  1 23  1  0
  2 24  1  0
  2 25  1  0
  3 26  1  0
  3 27  1  0
  4 28  1  0
  4 29  1  0
  5 30  1  0
  5 31  1  0
  6 32  1  0
  7 33  1  0
  8 34  1  0
  8 35  1  0
  9 36  1  0
 10 37  1  0
 11 38  1  0
 11 39  1  0
 12 40  1  0
 12 41  1  0
 13 42  1  0
 13 43  1  0
 14 44  1  0
 14 45  1  0
 15 46  1  0
 15 47  1  0
 16 48  1  0
 16 49  1  0
 17 50  1  0
 17 51  1  0
M  CHG  1  20  -1
M  END
>  <meeko>  (6) 
{"is_sidechain": [false], "free_energy": -5.385, "intermolecular_energy": -9.105, "internal_energy": -2.255}

$$$$
linoleate_run02
     RDKit          3D

 51 50  0  0  0  0  0  0  0  0999 V2000
   46.1760   36.9430   32.6090 C   0  0  0  0  0  0  0  0  0  0  0  0
   46.9100   35.6120   32.6750 C   0  0  0  0  0  0  0  0  0  0  0  0
   48.2250   35.6010   31.8910 C   0  0  0  0  0  0  0  0  0  0  0  0
   48.0700   35.0920   30.4540 C   0  0  0  0  0  0  0  0  0  0  0  0
   48.6160   36.1110   29.4460 C   0  0  0  0  0  0  0  0  0  0  0  0
   47.6250   37.0740   28.8500 C   0  0  0  0  0  0  0  0  0  0  0  0
   47.3140   37.2250   27.5530 C   0  0  0  0  0  0  0  0  0  0  0  0
   47.9410   36.4200   26.4510 C   0  0  0  0  0  0  0  0  0  0  0  0
   46.9160   35.9510   25.4600 C   0  0  0  0  0  0  0  0  0  0  0  0
   46.3250   34.7480   25.5120 C   0  0  0  0  0  0  0  0  0  0  0  0
   46.6160   33.7210   26.5690 C   0  0  0  0  0  0  0  0  0  0  0  0
   47.6090   32.6480   26.1090 C   0  0  0  0  0  0  0  0  0  0  0  0
   49.0630   32.9750   26.4650 C   0  0  0  0  0  0  0  0  0  0  0  0
   49.9890   33.0300   25.2450 C   0  0  0  0  0  0  0  0  0  0  0  0
   50.5050   31.6550   24.8130 C   0  0  0  0  0  0  0  0  0  0  0  0
   52.0310   31.6610   24.6580 C   0  0  0  0  0  0  0  0  0  0  0  0
   52.7350   32.3280   25.8390 C   0  0  0  0  0  0  0  0  0  0  0  0
   54.0680   32.9320   25.4700 C   0  0  0  0  0  0  0  0  0  0  0  0
   54.7470   32.6390   24.4980 O   0  0  0  0  0  0  0  0  0  0  0  0
   54.4100   33.8920   26.3680 O   0  0  0  0  0  0  0  0  0  0  0  0
   45.9774   37.3032   33.6292 H   0  0  0  0  0  0  0  0  0  0  0  0
   46.7964   37.6778   32.0750 H   0  0  0  0  0  0  0  0  0  0  0  0
   45.2235   36.8104   32.0750 H   0  0  0  0  0  0  0  0  0  0  0  0
   47.1310   35.3880   33.7290 H   0  0  0  0  0  0  0  0  0  0  0  0
   46.2537   34.8572   32.2172 H   0  0  0  0  0  0  0  0  0  0  0  0
   48.6199   36.6271   31.8572 H   0  0  0  0  0  0  0  0  0  0  0  0
   48.9073   34.9110   32.4091 H   0  0  0  0  0  0  0  0  0  0  0  0
   48.6233   34.1475   30.3457 H   0  0  0  0  0  0  0  0  0  0  0  0
   46.9999   34.9383   30.2510 H   0  0  0  0  0  0  0  0  0  0  0  0
   49.3893   36.7032   29.9572 H   0  0  0  0  0  0  0  0  0  0  0  0
   48.9796   35.5111   28.5987 H   0  0  0  0  0  0  0  0  0  0  0  0
   47.0952   37.7286   29.5577 H   0  0  0  0  0  0  0  0  0  0  0  0
   46.5596   37.9786   27.2828 H   0  0  0  0  0  0  0  0  0  0  0  0
   48.6824   37.0438   25.9302 H   0  0  0  0  0  0  0  0  0  0  0  0
   48.4181   35.5356   26.8985 H   0  0  0  0  0  0  0  0  0  0  0  0
   46.6333   36.6328   24.6444 H   0  0  0  0  0  0  0  0  0  0  0  0
   45.5853   34.4994   24.7367 H   0  0  0  0  0  0  0  0  0  0  0  0
   47.0358   34.2325   27.4477 H   0  0  0  0  0  0  0  0  0  0  0  0
   45.6686   33.2125   26.8013 H   0  0  0  0  0  0  0  0  0  0  0  0
   47.3387   31.6945   26.5863 H   0  0  0  0  0  0  0  0  0  0  0  0
   47.5463   32.5950   25.0121 H   0  0  0  0  0  0  0  0  0  0  0  0
   49.0879   33.9537   26.9664 H   0  0  0  0  0  0  0  0  0  0  0  0
   49.4287   32.1664   27.1150 H   0  0  0  0  0  0  0  0  0  0  0  0
   49.4341   33.4741   24.4054 H   0  0  0  0  0  0  0  0  0  0  0  0
   50.8650   33.6321   25.5282 H   0  0  0  0  0  0  0  0  0  0  0  0
   50.2241   30.9110   25.5729 H   0  0  0  0  0  0  0  0  0  0  0  0
   50.0563   31.4033   23.8407 H   0  0  0  0  0  0  0  0  0  0  0  0
   52.3819   30.6215   24.5791 H   0  0  0  0  0  0  0  0  0  0  0  0
   52.2735   32.2386   23.7538 H   0  0  0  0  0  0  0  0  0  0  0  0
   52.0853   33.1255   26.2288 H   0  0  0  0  0  0  0  0  0  0  0  0
   52.9255   31.5475   26.5904 H   0  0  0  0  0  0  0  0  0  0  0  0
  1  2  1  0
  2  3  1  0
  3  4  1  0
  4  5  1  0
  5  6  1  0
  6  7  2  0
  7  8  1  0
  8  9  1  0
  9 10  2  0
 10 11  1  0
 11 12  1  0
 12 13  1  0
 13 14  1  0
 14 15  1  0
 15 16  1  0
 16 17  1  0
 17 18  1  0
 18 19  2  0
 18 20  1  0
  1 21  1  0
  1 22  1  0
  1 23  1  0
  2 24  1  0
  2 25  1  0
  3 26  1  0
  3 27  1  0
  4 28  1  0
  4 29  1  0
  5 30  1  0
  5 31  1  0
  6 32  1  0
  7 33  1  0
  8 34  1  0
  8 35  1  0
  9 36  1  0
 10 37  1  0
 11 38  1  0
 11 39  1  0
 12 40  1  0
 12 41  1  0
 13 42  1  0
 13 43  1  0
 14 44  1  0
 14 45  1  0
 15 46  1  0
 15 47  1  0
 16 48  1  0
 16 49  1  0
 17 50  1  0
 17 51  1  0
M  CHG  1  20  -1
M  END
>  <meeko>  (7) 
{"is_sidechain": [false], "free_energy": -5.319, "intermolecular_energy": -9.658, "internal_energy": -1.581}

$$$$
linoleate_run02
     RDKit          3D

 51 50  0  0  0  0  0  0  0  0999 V2000
   48.7000   33.0280   25.0150 C   0  0  0  0  0  0  0  0  0  0  0  0
   47.9520   33.4960   26.2540 C   0  0  0  0  0  0  0  0  0  0  0  0
   46.5850   34.1100   25.9460 C   0  0  0  0  0  0  0  0  0  0  0  0
   46.6710   35.5310   25.3790 C   0  0  0  0  0  0  0  0  0  0  0  0
   47.7840   36.3320   26.0640 C   0  0  0  0  0  0  0  0  0  0  0  0
   47.3580   37.3330   27.1040 C   0  0  0  0  0  0  0  0  0  0  0  0
   47.3620   37.1750   28.4370 C   0  0  0  0  0  0  0  0  0  0  0  0
   47.8100   35.9150   29.1220 C   0  0  0  0  0  0  0  0  0  0  0  0
   49.0860   36.1270   29.8830 C   0  0  0  0  0  0  0  0  0  0  0  0
   49.3430   35.5700   31.0760 C   0  0  0  0  0  0  0  0  0  0  0  0
   48.3850   34.6630   31.7960 C   0  0  0  0  0  0  0  0  0  0  0  0
   48.8090   34.3650   33.2390 C   0  0  0  0  0  0  0  0  0  0  0  0
   47.6740   33.8000   34.1000 C   0  0  0  0  0  0  0  0  0  0  0  0
   46.7540   32.8400   33.3370 C   0  0  0  0  0  0  0  0  0  0  0  0
   45.2740   33.2170   33.4310 C   0  0  0  0  0  0  0  0  0  0  0  0
   45.0780   34.4860   34.2690 C   0  0  0  0  0  0  0  0  0  0  0  0
   44.6140   35.6750   33.4290 C   0  0  0  0  0  0  0  0  0  0  0  0
   43.4500   36.4160   34.0410 C   0  0  0  0  0  0  0  0  0  0  0  0
   42.2660   36.1790   33.8530 O   0  0  0  0  0  0  0  0  0  0  0  0
   43.9010   37.3880   34.8740 O   0  0  0  0  0  0  0  0  0  0  0  0
   49.5965   32.4671   25.3179 H   0  0  0  0  0  0  0  0  0  0  0  0
   48.0459   32.3778   24.4155 H   0  0  0  0  0  0  0  0  0  0  0  0
   48.9986   33.9006   24.4155 H   0  0  0  0  0  0  0  0  0  0  0  0
   47.8039   32.6319   26.9184 H   0  0  0  0  0  0  0  0  0  0  0  0
   48.5619   34.2826   26.7223 H   0  0  0  0  0  0  0  0  0  0  0  0
   46.0734   33.4714   25.2108 H   0  0  0  0  0  0  0  0  0  0  0  0
   46.0348   34.1719   26.8965 H   0  0  0  0  0  0  0  0  0  0  0  0
   46.8800   35.4754   24.3005 H   0  0  0  0  0  0  0  0  0  0  0  0
   45.7123   36.0386   25.5614 H   0  0  0  0  0  0  0  0  0  0  0  0
   48.4598   35.6135   26.5508 H   0  0  0  0  0  0  0  0  0  0  0  0
   48.2448   36.9280   25.2625 H   0  0  0  0  0  0  0  0  0  0  0  0
   47.0031   38.3044   26.7292 H   0  0  0  0  0  0  0  0  0  0  0  0
   47.0188   38.0130   29.0614 H   0  0  0  0  0  0  0  0  0  0  0  0
   47.0260   35.5905   29.8220 H   0  0  0  0  0  0  0  0  0  0  0  0
   47.9897   35.1491   28.3531 H   0  0  0  0  0  0  0  0  0  0  0  0
   49.8542   36.7760   29.4372 H   0  0  0  0  0  0  0  0  0  0  0  0
   50.3091   35.7894   31.5541 H   0  0  0  0  0  0  0  0  0  0  0  0
   47.3951   35.1424   31.8138 H   0  0  0  0  0  0  0  0  0  0  0  0
   48.3691   33.7058   31.2542 H   0  0  0  0  0  0  0  0  0  0  0  0
   49.6290   33.6322   33.2177 H   0  0  0  0  0  0  0  0  0  0  0  0
   49.1173   35.3190   33.6916 H   0  0  0  0  0  0  0  0  0  0  0  0
   48.1164   33.2586   34.9492 H   0  0  0  0  0  0  0  0  0  0  0  0
   47.0581   34.6510   34.4263 H   0  0  0  0  0  0  0  0  0  0  0  0
   47.0484   32.8428   32.2771 H   0  0  0  0  0  0  0  0  0  0  0  0
   46.8670   31.8467   33.7960 H   0  0  0  0  0  0  0  0  0  0  0  0
   44.8831   33.3920   32.4178 H   0  0  0  0  0  0  0  0  0  0  0  0
   44.7341   32.3912   33.9173 H   0  0  0  0  0  0  0  0  0  0  0  0
   44.3228   34.2846   35.0431 H   0  0  0  0  0  0  0  0  0  0  0  0
   46.0503   34.7482   34.7116 H   0  0  0  0  0  0  0  0  0  0  0  0
   45.4553   36.3750   33.3189 H   0  0  0  0  0  0  0  0  0  0  0  0
   44.2768   35.2792   32.4596 H   0  0  0  0  0  0  0  0  0  0  0  0
  1  2  1  0
  2  3  1  0
  3  4  1  0
  4  5  1  0
  5  6  1  0
  6  7  2  0
  7  8  1  0
  8  9  1  0
  9 10  2  0
 10 11  1  0
 11 12  1  0
 12 13  1  0
 13 14  1  0
 14 15  1  0
 15 16  1  0
 16 17  1  0
 17 18  1  0
 18 19  2  0
 18 20  1  0
  1 21  1  0
  1 22  1  0
  1 23  1  0
  2 24  1  0
  2 25  1  0
  3 26  1  0
  3 27  1  0
  4 28  1  0
  4 29  1  0
  5 30  1  0
  5 31  1  0
  6 32  1  0
  7 33  1  0
  8 34  1  0
  8 35  1  0
  9 36  1  0
 10 37  1  0
 11 38  1  0
 11 39  1  0
 12 40  1  0
 12 41  1  0
 13 42  1  0
 13 43  1  0
 14 44  1  0
 14 45  1  0
 15 46  1  0
 15 47  1  0
 16 48  1  0
 16 49  1  0
 17 50  1  0
 17 51  1  0
M  CHG  1  20  -1
M  END
>  <meeko>  (8) 
{"is_sidechain": [false], "free_energy": -5.284, "intermolecular_energy": -9.821, "internal_energy": -1.353}

$$$$
linoleate_run02
     RDKit          3D

 51 50  0  0  0  0  0  0  0  0999 V2000
   50.3640   32.3420   24.8670 C   0  0  0  0  0  0  0  0  0  0  0  0
   48.8630   32.5880   24.8820 C   0  0  0  0  0  0  0  0  0  0  0  0
   48.4070   33.5210   26.0060 C   0  0  0  0  0  0  0  0  0  0  0  0
   46.8960   33.4870   26.2470 C   0  0  0  0  0  0  0  0  0  0  0  0
   46.2060   34.6950   25.6020 C   0  0  0  0  0  0  0  0  0  0  0  0
   47.0840   35.8600   25.2330 C   0  0  0  0  0  0  0  0  0  0  0  0
   47.4620   36.8780   26.0220 C   0  0  0  0  0  0  0  0  0  0  0  0
   47.0430   37.0130   27.4580 C   0  0  0  0  0  0  0  0  0  0  0  0
   48.2080   37.3480   28.3420 C   0  0  0  0  0  0  0  0  0  0  0  0
   48.7900   36.4700   29.1730 C   0  0  0  0  0  0  0  0  0  0  0  0
   48.3470   35.0420   29.3200 C   0  0  0  0  0  0  0  0  0  0  0  0
   47.6930   34.7520   30.6750 C   0  0  0  0  0  0  0  0  0  0  0  0
   47.6100   35.9820   31.5840 C   0  0  0  0  0  0  0  0  0  0  0  0
   48.0190   35.6940   33.0330 C   0  0  0  0  0  0  0  0  0  0  0  0
   48.5470   34.2730   33.2430 C   0  0  0  0  0  0  0  0  0  0  0  0
   47.8850   33.6110   34.4580 C   0  0  0  0  0  0  0  0  0  0  0  0
   46.7180   32.7070   34.0650 C   0  0  0  0  0  0  0  0  0  0  0  0
   45.4460   33.4690   33.7790 C   0  0  0  0  0  0  0  0  0  0  0  0
   44.8060   33.4380   32.7400 O   0  0  0  0  0  0  0  0  0  0  0  0
   45.0810   34.1920   34.8680 O   0  0  0  0  0  0  0  0  0  0  0  0
   50.7359   32.2810   25.9004 H   0  0  0  0  0  0  0  0  0  0  0  0
   50.5755   31.3972   24.3449 H   0  0  0  0  0  0  0  0  0  0  0  0
   50.8660   33.1698   24.3449 H   0  0  0  0  0  0  0  0  0  0  0  0
   48.5742   33.0357   23.9196 H   0  0  0  0  0  0  0  0  0  0  0  0
   48.3781   31.6155   25.0529 H   0  0  0  0  0  0  0  0  0  0  0  0
   48.9153   33.2227   26.9348 H   0  0  0  0  0  0  0  0  0  0  0  0
   48.6650   34.5463   25.7025 H   0  0  0  0  0  0  0  0  0  0  0  0
   46.4838   32.5640   25.8131 H   0  0  0  0  0  0  0  0  0  0  0  0
   46.7147   33.5194   27.3315 H   0  0  0  0  0  0  0  0  0  0  0  0
   45.7132   34.3453   24.6828 H   0  0  0  0  0  0  0  0  0  0  0  0
   45.5228   35.0818   26.3724 H   0  0  0  0  0  0  0  0  0  0  0  0
   47.4587   35.8796   24.1990 H   0  0  0  0  0  0  0  0  0  0  0  0
   48.1132   37.6545   25.5942 H   0  0  0  0  0  0  0  0  0  0  0  0
   46.2924   37.8132   27.5375 H   0  0  0  0  0  0  0  0  0  0  0  0
   46.6256   36.0501   27.7875 H   0  0  0  0  0  0  0  0  0  0  0  0
   48.6079   38.3721   28.3068 H   0  0  0  0  0  0  0  0  0  0  0  0
   49.6393   36.8152   29.7809 H   0  0  0  0  0  0  0  0  0  0  0  0
   47.6204   34.8173   28.5253 H   0  0  0  0  0  0  0  0  0  0  0  0
   49.2450   34.4109   29.2475 H   0  0  0  0  0  0  0  0  0  0  0  0
   46.6733   34.3795   30.4978 H   0  0  0  0  0  0  0  0  0  0  0  0
   48.3224   34.0099   31.1881 H   0  0  0  0  0  0  0  0  0  0  0  0
   48.2759   36.7594   31.1812 H   0  0  0  0  0  0  0  0  0  0  0  0
   46.5585   36.3046   31.6003 H   0  0  0  0  0  0  0  0  0  0  0  0
   48.8071   36.4052   33.3211 H   0  0  0  0  0  0  0  0  0  0  0  0
   47.1167   35.8008   33.6531 H   0  0  0  0  0  0  0  0  0  0  0  0
   48.3319   33.6738   32.3460 H   0  0  0  0  0  0  0  0  0  0  0  0
   49.6310   34.3263   33.4221 H   0  0  0  0  0  0  0  0  0  0  0  0
   48.6381   33.0067   34.9849 H   0  0  0  0  0  0  0  0  0  0  0  0
   47.4881   34.4106   35.1007 H   0  0  0  0  0  0  0  0  0  0  0  0
   46.9995   32.1451   33.1622 H   0  0  0  0  0  0  0  0  0  0  0  0
   46.5167   32.0431   34.9186 H   0  0  0  0  0  0  0  0  0  0  0  0
  1  2  1  0
  2  3  1  0
  3  4  1  0
  4  5  1  0
  5  6  1  0
  6  7  2  0
  7  8  1  0
  8  9  1  0
  9 10  2  0
 10 11  1  0
 11 12  1  0
 12 13  1  0
 13 14  1  0
 14 15  1  0
 15 16  1  0
 16 17  1  0
 17 18  1  0
 18 19  2  0
 18 20  1  0
  1 21  1  0
  1 22  1  0
  1 23  1  0
  2 24  1  0
  2 25  1  0
  3 26  1  0
  3 27  1  0
  4 28  1  0
  4 29  1  0
  5 30  1  0
  5 31  1  0
  6 32  1  0
  7 33  1  0
  8 34  1  0
  8 35  1  0
  9 36  1  0
 10 37  1  0
 11 38  1  0
 11 39  1  0
 12 40  1  0
 12 41  1  0
 13 42  1  0
 13 43  1  0
 14 44  1  0
 14 45  1  0
 15 46  1  0
 15 47  1  0
 16 48  1  0
 16 49  1  0
 17 50  1  0
 17 51  1  0
M  CHG  1  20  -1
M  END
>  <meeko>  (9) 
{"is_sidechain": [false], "free_energy": -5.272, "intermolecular_energy": -9.417, "internal_energy": -1.736}

$$$$
linoleate_run02
     RDKit          3D

 51 50  0  0  0  0  0  0  0  0999 V2000
   46.6220   31.5030   29.5830 C   0  0  0  0  0  0  0  0  0  0  0  0
   45.9080   31.7150   28.2580 C   0  0  0  0  0  0  0  0  0  0  0  0
   46.2300   33.0580   27.5980 C   0  0  0  0  0  0  0  0  0  0  0  0
   47.5890   33.0750   26.8920 C   0  0  0  0  0  0  0  0  0  0  0  0
   47.4750   33.6860   25.4890 C   0  0  0  0  0  0  0  0  0  0  0  0
   46.5420   34.8560   25.3330 C   0  0  0  0  0  0  0  0  0  0  0  0
   46.8150   36.1520   25.5580 C   0  0  0  0  0  0  0  0  0  0  0  0
   48.1540   36.6490   26.0230 C   0  0  0  0  0  0  0  0  0  0  0  0
   48.0120   37.7360   27.0460 C   0  0  0  0  0  0  0  0  0  0  0  0
   47.8080   37.5080   28.3520 C   0  0  0  0  0  0  0  0  0  0  0  0
   47.6970   36.1350   28.9520 C   0  0  0  0  0  0  0  0  0  0  0  0
   48.8420   35.8050   29.9160 C   0  0  0  0  0  0  0  0  0  0  0  0
   48.9380   34.3140   30.2560 C   0  0  0  0  0  0  0  0  0  0  0  0
   48.6420   34.0080   31.7280 C   0  0  0  0  0  0  0  0  0  0  0  0
   47.2030   34.3330   32.1380 C   0  0  0  0  0  0  0  0  0  0  0  0
   47.1500   35.5820   33.0260 C   0  0  0  0  0  0  0  0  0  0  0  0
   45.8160   36.3190   32.9150 C   0  0  0  0  0  0  0  0  0  0  0  0
   44.6830   35.6030   33.6090 C   0  0  0  0  0  0  0  0  0  0  0  0
   44.7830   34.8600   34.5730 O   0  0  0  0  0  0  0  0  0  0  0  0
   43.5000   35.9220   33.0230 O   0  0  0  0  0  0  0  0  0  0  0  0
   45.9276   31.7092   30.4108 H   0  0  0  0  0  0  0  0  0  0  0  0
   46.9719   30.4622   29.6485 H   0  0  0  0  0  0  0  0  0  0  0  0
   47.4832   32.1842   29.6485 H   0  0  0  0  0  0  0  0  0  0  0  0
   46.2043   30.9093   27.5702 H   0  0  0  0  0  0  0  0  0  0  0  0
   44.8283   31.7088   28.4681 H   0  0  0  0  0  0  0  0  0  0  0  0
   45.4483   33.2790   26.8563 H   0  0  0  0  0  0  0  0  0  0  0  0
   46.2682   33.8131   28.3970 H   0  0  0  0  0  0  0  0  0  0  0  0
   48.2957   33.6717   27.4874 H   0  0  0  0  0  0  0  0  0  0  0  0
   47.9448   32.0388   26.7940 H   0  0  0  0  0  0  0  0  0  0  0  0
   48.4794   34.0187   25.1882 H   0  0  0  0  0  0  0  0  0  0  0  0
   47.0464   32.8902   24.8621 H   0  0  0  0  0  0  0  0  0  0  0  0
   45.5207   34.6239   24.9966 H   0  0  0  0  0  0  0  0  0  0  0  0
   46.0150   36.8887   25.3928 H   0  0  0  0  0  0  0  0  0  0  0  0
   48.7117   35.8112   26.4668 H   0  0  0  0  0  0  0  0  0  0  0  0
   48.6899   37.0602   25.1548 H   0  0  0  0  0  0  0  0  0  0  0  0
   48.0789   38.7800   26.7061 H   0  0  0  0  0  0  0  0  0  0  0  0
   47.7168   38.3757   29.0219 H   0  0  0  0  0  0  0  0  0  0  0  0
   46.7466   36.0692   29.5019 H   0  0  0  0  0  0  0  0  0  0  0  0
   47.7458   35.4111   28.1252 H   0  0  0  0  0  0  0  0  0  0  0  0
   49.7893   36.1192   29.4534 H   0  0  0  0  0  0  0  0  0  0  0  0
   48.6414   36.3409   30.8554 H   0  0  0  0  0  0  0  0  0  0  0  0
   48.2151   33.7666   29.6333 H   0  0  0  0  0  0  0  0  0  0  0  0
   49.9742   34.0011   30.0600 H   0  0  0  0  0  0  0  0  0  0  0  0
   48.8218   32.9373   31.9048 H   0  0  0  0  0  0  0  0  0  0  0  0
   49.3042   34.6455   32.3322 H   0  0  0  0  0  0  0  0  0  0  0  0
   46.6030   34.5099   31.2332 H   0  0  0  0  0  0  0  0  0  0  0  0
   46.8018   33.4821   32.7081 H   0  0  0  0  0  0  0  0  0  0  0  0
   47.2998   35.2781   34.0725 H   0  0  0  0  0  0  0  0  0  0  0  0
   47.9412   36.2676   32.6884 H   0  0  0  0  0  0  0  0  0  0  0  0
   45.9285   37.3159   33.3662 H   0  0  0  0  0  0  0  0  0  0  0  0
   45.5615   36.3762   31.8464 H   0  0  0  0  0  0  0  0  0  0  0  0
  1  2  1  0
  2  3  1  0
  3  4  1  0
  4  5  1  0
  5  6  1  0
  6  7  2  0
  7  8  1  0
  8  9  1  0
  9 10  2  0
 10 11  1  0
 11 12  1  0
 12 13  1  0
 13 14  1  0
 14 15  1  0
 15 16  1  0
 16 17  1  0
 17 18  1  0
 18 19  2  0
 18 20  1  0
  1 21  1  0
  1 22  1  0
  1 23  1  0
  2 24  1  0
  2 25  1  0
  3 26  1  0
  3 27  1  0
  4 28  1  0
  4 29  1  0
  5 30  1  0
  5 31  1  0
  6 32  1  0
  7 33  1  0
  8 34  1  0
  8 35  1  0
  9 36  1  0
 10 37  1  0
 11 38  1  0
 11 39  1  0
 12 40  1  0
 12 41  1  0
 13 42  1  0
 13 43  1  0
 14 44  1  0
 14 45  1  0
 15 46  1  0
 15 47  1  0
 16 48  1  0
 16 49  1  0
 17 50  1  0
 17 51  1  0
M  CHG  1  20  -1
M  END
>  <meeko>  (10) 
{"is_sidechain": [false], "free_energy": -5.241, "intermolecular_energy": -9.041, "internal_energy": -2.056}

$$$$
linoleate_run02
     RDKit          3D

 51 50  0  0  0  0  0  0  0  0999 V2000
   49.4090   32.3560   29.2310 C   0  0  0  0  0  0  0  0  0  0  0  0
   47.9590   31.9500   29.4450 C   0  0  0  0  0  0  0  0  0  0  0  0
   47.0240   32.4100   28.3240 C   0  0  0  0  0  0  0  0  0  0  0  0
   46.2100   31.2680   27.7070 C   0  0  0  0  0  0  0  0  0  0  0  0
   46.7570   30.8820   26.3280 C   0  0  0  0  0  0  0  0  0  0  0  0
   48.1440   30.3000   26.2870 C   0  0  0  0  0  0  0  0  0  0  0  0
   49.2070   30.7730   25.6180 C   0  0  0  0  0  0  0  0  0  0  0  0
   49.1680   32.0120   24.7680 C   0  0  0  0  0  0  0  0  0  0  0  0
   49.5670   33.2280   25.5500 C   0  0  0  0  0  0  0  0  0  0  0  0
   48.7540   34.2730   25.7680 C   0  0  0  0  0  0  0  0  0  0  0  0
   47.3430   34.3530   25.2570 C   0  0  0  0  0  0  0  0  0  0  0  0
   46.6490   35.6720   25.6130 C   0  0  0  0  0  0  0  0  0  0  0  0
   47.6260   36.7870   26.0010 C   0  0  0  0  0  0  0  0  0  0  0  0
   47.2790   37.4610   27.3330 C   0  0  0  0  0  0  0  0  0  0  0  0
   48.3100   37.1940   28.4340 C   0  0  0  0  0  0  0  0  0  0  0  0
   47.9780   35.9100   29.2030 C   0  0  0  0  0  0  0  0  0  0  0  0
   48.8240   35.7500   30.4650 C   0  0  0  0  0  0  0  0  0  0  0  0
   47.9980   35.6390   31.7230 C   0  0  0  0  0  0  0  0  0  0  0  0
   48.0860   36.3570   32.7080 O   0  0  0  0  0  0  0  0  0  0  0  0
   47.0990   34.6290   31.6040 O   0  0  0  0  0  0  0  0  0  0  0  0
   49.8991   32.4932   30.2062 H   0  0  0  0  0  0  0  0  0  0  0  0
   49.9305   31.5693   28.6660 H   0  0  0  0  0  0  0  0  0  0  0  0
   49.4462   33.2991   28.6660 H   0  0  0  0  0  0  0  0  0  0  0  0
   47.9107   30.8530   29.5104 H   0  0  0  0  0  0  0  0  0  0  0  0
   47.6195   32.4387   30.3702 H   0  0  0  0  0  0  0  0  0  0  0  0
   46.3258   33.1541   28.7350 H   0  0  0  0  0  0  0  0  0  0  0  0
   47.6540   32.8294   27.5257 H   0  0  0  0  0  0  0  0  0  0  0  0
   46.2593   30.3923   28.3709 H   0  0  0  0  0  0  0  0  0  0  0  0
   45.1698   31.6053   27.5881 H   0  0  0  0  0  0  0  0  0  0  0  0
   46.0715   30.1392   25.8940 H   0  0  0  0  0  0  0  0  0  0  0  0
   46.8250   31.8277   25.7703 H   0  0  0  0  0  0  0  0  0  0  0  0
   48.3050   29.3824   26.8719 H   0  0  0  0  0  0  0  0  0  0  0  0
   50.1574   30.2247   25.6959 H   0  0  0  0  0  0  0  0  0  0  0  0
   49.8608   31.8875   23.9227 H   0  0  0  0  0  0  0  0  0  0  0  0
   48.1370   32.1538   24.4118 H   0  0  0  0  0  0  0  0  0  0  0  0
   50.5836   33.2653   25.9685 H   0  0  0  0  0  0  0  0  0  0  0  0
   49.1423   35.1191   26.3540 H   0  0  0  0  0  0  0  0  0  0  0  0
   47.3609   34.2512   24.1619 H   0  0  0  0  0  0  0  0  0  0  0  0
   46.7739   33.5429   25.7365 H   0  0  0  0  0  0  0  0  0  0  0  0
   46.0665   36.0060   24.7417 H   0  0  0  0  0  0  0  0  0  0  0  0
   46.0121   35.4784   26.4887 H   0  0  0  0  0  0  0  0  0  0  0  0
   48.6346   36.3553   26.0805 H   0  0  0  0  0  0  0  0  0  0  0  0
   47.5659   37.5591   25.2199 H   0  0  0  0  0  0  0  0  0  0  0  0
   47.2167   38.5469   27.1690 H   0  0  0  0  0  0  0  0  0  0  0  0
   46.3224   37.0375   27.6729 H   0  0  0  0  0  0  0  0  0  0  0  0
   49.3052   37.0915   27.9768 H   0  0  0  0  0  0  0  0  0  0  0  0
   48.2932   38.0376   29.1397 H   0  0  0  0  0  0  0  0  0  0  0  0
   46.9165   35.9352   29.4905 H   0  0  0  0  0  0  0  0  0  0  0  0
   48.1974   35.0581   28.5426 H   0  0  0  0  0  0  0  0  0  0  0  0
   49.4329   34.8394   30.3648 H   0  0  0  0  0  0  0  0  0  0  0  0
   49.4448   36.6531   30.5596 H   0  0  0  0  0  0  0  0  0  0  0  0
  1  2  1  0
  2  3  1  0
  3  4  1  0
  4  5  1  0
  5  6  1  0
  6  7  2  0
  7  8  1  0
  8  9  1  0
  9 10  2  0
 10 11  1  0
 11 12  1  0
 12 13  1  0
 13 14  1  0
 14 15  1  0
 15 16  1  0
 16 17  1  0
 17 18  1  0
 18 19  2  0
 18 20  1  0
  1 21  1  0
  1 22  1  0
  1 23  1  0
  2 24  1  0
  2 25  1  0
  3 26  1  0
  3 27  1  0
  4 28  1  0
  4 29  1  0
  5 30  1  0
  5 31  1  0
  6 32  1  0
  7 33  1  0
  8 34  1  0
  8 35  1  0
  9 36  1  0
 10 37  1  0
 11 38  1  0
 11 39  1  0
 12 40  1  0
 12 41  1  0
 13 42  1  0
 13 43  1  0
 14 44  1  0
 14 45  1  0
 15 46  1  0
 15 47  1  0
 16 48  1  0
 16 49  1  0
 17 50  1  0
 17 51  1  0
M  CHG  1  20  -1
M  END
>  <meeko>  (11) 
{"is_sidechain": [false], "free_energy": -5.229, "intermolecular_energy": -8.188, "internal_energy": -2.886}

$$$$
linoleate_run02
     RDKit          3D

 51 50  0  0  0  0  0  0  0  0999 V2000
   49.5010   32.5910   24.9400 C   0  0  0  0  0  0  0  0  0  0  0  0
   49.7470   32.7830   26.4280 C   0  0  0  0  0  0  0  0  0  0  0  0
   48.5140   32.5090   27.2920 C   0  0  0  0  0  0  0  0  0  0  0  0
   47.2980   32.0480   26.4840 C   0  0  0  0  0  0  0  0  0  0  0  0
   46.1510   33.0610   26.5870 C   0  0  0  0  0  0  0  0  0  0  0  0
   45.9570   33.9870   25.4160 C   0  0  0  0  0  0  0  0  0  0  0  0
   46.4900   35.2070   25.2460 C   0  0  0  0  0  0  0  0  0  0  0  0
   47.4010   35.8610   26.2460 C   0  0  0  0  0  0  0  0  0  0  0  0
   47.5500   37.3290   25.9770 C   0  0  0  0  0  0  0  0  0  0  0  0
   48.0190   38.2080   26.8760 C   0  0  0  0  0  0  0  0  0  0  0  0
   48.4570   37.8290   28.2620 C   0  0  0  0  0  0  0  0  0  0  0  0
   47.3070   37.3110   29.1350 C   0  0  0  0  0  0  0  0  0  0  0  0
   47.7260   36.1800   30.0810 C   0  0  0  0  0  0  0  0  0  0  0  0
   49.0260   35.4870   29.6590 C   0  0  0  0  0  0  0  0  0  0  0  0
   49.2530   34.1450   30.3600 C   0  0  0  0  0  0  0  0  0  0  0  0
   50.2890   34.2750   31.4820 C   0  0  0  0  0  0  0  0  0  0  0  0
   51.0980   35.5680   31.3820 C   0  0  0  0  0  0  0  0  0  0  0  0
   51.0810   36.3790   32.6550 C   0  0  0  0  0  0  0  0  0  0  0  0
   52.0570   36.7170   33.3060 O   0  0  0  0  0  0  0  0  0  0  0  0
   49.8060   36.7180   32.9760 O   0  0  0  0  0  0  0  0  0  0  0  0
   48.6415   31.9202   24.7940 H   0  0  0  0  0  0  0  0  0  0  0  0
   49.2891   33.5650   24.4747 H   0  0  0  0  0  0  0  0  0  0  0  0
   50.3943   32.1489   24.4747 H   0  0  0  0  0  0  0  0  0  0  0  0
   50.5493   32.0978   26.7393 H   0  0  0  0  0  0  0  0  0  0  0  0
   50.0179   33.8386   26.5771 H   0  0  0  0  0  0  0  0  0  0  0  0
   48.7661   31.7251   28.0213 H   0  0  0  0  0  0  0  0  0  0  0  0
   48.2409   33.4566   27.7794 H   0  0  0  0  0  0  0  0  0  0  0  0
   47.5880   31.9396   25.4285 H   0  0  0  0  0  0  0  0  0  0  0  0
   46.9524   31.0860   26.8905 H   0  0  0  0  0  0  0  0  0  0  0  0
   45.2177   32.4946   26.7217 H   0  0  0  0  0  0  0  0  0  0  0  0
   46.4188   33.7148   27.4301 H   0  0  0  0  0  0  0  0  0  0  0  0
   45.3048   33.6226   24.6086 H   0  0  0  0  0  0  0  0  0  0  0  0
   46.2469   35.7576   24.3253 H   0  0  0  0  0  0  0  0  0  0  0  0
   46.9828   35.7231   27.2540 H   0  0  0  0  0  0  0  0  0  0  0  0
   48.3934   35.3933   26.1660 H   0  0  0  0  0  0  0  0  0  0  0  0
   47.2581   37.7068   24.9860 H   0  0  0  0  0  0  0  0  0  0  0  0
   48.0865   39.2657   26.5814 H   0  0  0  0  0  0  0  0  0  0  0  0
   49.2205   37.0409   28.1848 H   0  0  0  0  0  0  0  0  0  0  0  0
   48.8503   38.7373   28.7420 H   0  0  0  0  0  0  0  0  0  0  0  0
   46.9229   38.1467   29.7384 H   0  0  0  0  0  0  0  0  0  0  0  0
   46.5422   36.9029   28.4579 H   0  0  0  0  0  0  0  0  0  0  0  0
   47.8655   36.6006   31.0878 H   0  0  0  0  0  0  0  0  0  0  0  0
   46.9295   35.4218   30.0552 H   0  0  0  0  0  0  0  0  0  0  0  0
   48.9919   35.3123   28.5735 H   0  0  0  0  0  0  0  0  0  0  0  0
   49.8560   36.1490   29.9469 H   0  0  0  0  0  0  0  0  0  0  0  0
   48.3011   33.7984   30.7887 H   0  0  0  0  0  0  0  0  0  0  0  0
   49.6296   33.4241   29.6194 H   0  0  0  0  0  0  0  0  0  0  0  0
   49.7656   34.2598   32.4494 H   0  0  0  0  0  0  0  0  0  0  0  0
   50.9905   33.4328   31.3896 H   0  0  0  0  0  0  0  0  0  0  0  0
   52.1409   35.3106   31.1451 H   0  0  0  0  0  0  0  0  0  0  0  0
   50.6359   36.1832   30.5958 H   0  0  0  0  0  0  0  0  0  0  0  0
  1  2  1  0
  2  3  1  0
  3  4  1  0
  4  5  1  0
  5  6  1  0
  6  7  2  0
  7  8  1  0
  8  9  1  0
  9 10  2  0
 10 11  1  0
 11 12  1  0
 12 13  1  0
 13 14  1  0
 14 15  1  0
 15 16  1  0
 16 17  1  0
 17 18  1  0
 18 19  2  0
 18 20  1  0
  1 21  1  0
  1 22  1  0
  1 23  1  0
  2 24  1  0
  2 25  1  0
  3 26  1  0
  3 27  1  0
  4 28  1  0
  4 29  1  0
  5 30  1  0
  5 31  1  0
  6 32  1  0
  7 33  1  0
  8 34  1  0
  8 35  1  0
  9 36  1  0
 10 37  1  0
 11 38  1  0
 11 39  1  0
 12 40  1  0
 12 41  1  0
 13 42  1  0
 13 43  1  0
 14 44  1  0
 14 45  1  0
 15 46  1  0
 15 47  1  0
 16 48  1  0
 16 49  1  0
 17 50  1  0
 17 51  1  0
M  CHG  1  20  -1
M  END
>  <meeko>  (12) 
{"is_sidechain": [false], "free_energy": -5.226, "intermolecular_energy": -9.231, "internal_energy": -1.839}

$$$$
linoleate_run02
     RDKit          3D

 51 50  0  0  0  0  0  0  0  0999 V2000
   47.4870   36.5180   29.9900 C   0  0  0  0  0  0  0  0  0  0  0  0
   48.3670   36.6070   28.7520 C   0  0  0  0  0  0  0  0  0  0  0  0
   48.2420   37.9380   28.0080 C   0  0  0  0  0  0  0  0  0  0  0  0
   47.8270   37.7770   26.5430 C   0  0  0  0  0  0  0  0  0  0  0  0
   47.8730   36.3060   26.1140 C   0  0  0  0  0  0  0  0  0  0  0  0
   46.7080   35.7980   25.3070 C   0  0  0  0  0  0  0  0  0  0  0  0
   46.2700   34.5330   25.2160 C   0  0  0  0  0  0  0  0  0  0  0  0
   46.9070   33.3800   25.9380 C   0  0  0  0  0  0  0  0  0  0  0  0
   46.2920   33.1710   27.2910 C   0  0  0  0  0  0  0  0  0  0  0  0
   47.0000   32.8940   28.3960 C   0  0  0  0  0  0  0  0  0  0  0  0
   48.4970   32.7600   28.4170 C   0  0  0  0  0  0  0  0  0  0  0  0
   49.1080   33.0550   29.7910 C   0  0  0  0  0  0  0  0  0  0  0  0
   48.8240   31.9630   30.8280 C   0  0  0  0  0  0  0  0  0  0  0  0
   47.7610   32.3650   31.8560 C   0  0  0  0  0  0  0  0  0  0  0  0
   46.8810   31.1960   32.3070 C   0  0  0  0  0  0  0  0  0  0  0  0
   46.5070   31.3250   33.7880 C   0  0  0  0  0  0  0  0  0  0  0  0
   45.2060   32.1000   33.9960 C   0  0  0  0  0  0  0  0  0  0  0  0
   45.4210   33.4750   34.5810 C   0  0  0  0  0  0  0  0  0  0  0  0
   44.6000   34.3780   34.6180 O   0  0  0  0  0  0  0  0  0  0  0  0
   46.6710   33.5700   35.1030 O   0  0  0  0  0  0  0  0  0  0  0  0
   48.1145   36.5815   30.8912 H   0  0  0  0  0  0  0  0  0  0  0  0
   46.7648   37.3477   29.9869 H   0  0  0  0  0  0  0  0  0  0  0  0
   46.9455   35.5605   29.9869 H   0  0  0  0  0  0  0  0  0  0  0  0
   49.4151   36.4775   29.0599 H   0  0  0  0  0  0  0  0  0  0  0  0
   48.0342   35.8181   28.0614 H   0  0  0  0  0  0  0  0  0  0  0  0
   47.4872   38.5539   28.5189 H   0  0  0  0  0  0  0  0  0  0  0  0
   49.2359   38.4094   28.0149 H   0  0  0  0  0  0  0  0  0  0  0  0
   46.8022   38.1561   26.4163 H   0  0  0  0  0  0  0  0  0  0  0  0
   48.5302   38.3454   25.9165 H   0  0  0  0  0  0  0  0  0  0  0  0
   48.7825   36.1631   25.5120 H   0  0  0  0  0  0  0  0  0  0  0  0
   47.8462   35.7315   27.0517 H   0  0  0  0  0  0  0  0  0  0  0  0
   46.1528   36.5492   24.7260 H   0  0  0  0  0  0  0  0  0  0  0  0
   45.3973   34.3292   24.5782 H   0  0  0  0  0  0  0  0  0  0  0  0
   46.7741   32.4664   25.3400 H   0  0  0  0  0  0  0  0  0  0  0  0
   47.9747   33.6062   26.0754 H   0  0  0  0  0  0  0  0  0  0  0  0
   45.1985   33.2494   27.3816 H   0  0  0  0  0  0  0  0  0  0  0  0
   46.4539   32.7571   29.3410 H   0  0  0  0  0  0  0  0  0  0  0  0
   48.7604   31.7312   28.1304 H   0  0  0  0  0  0  0  0  0  0  0  0
   48.9024   33.5007   27.7120 H   0  0  0  0  0  0  0  0  0  0  0  0
   50.1976   33.1515   29.6751 H   0  0  0  0  0  0  0  0  0  0  0  0
   48.6466   33.9828   30.1603 H   0  0  0  0  0  0  0  0  0  0  0  0
   48.4766   31.0624   30.3005 H   0  0  0  0  0  0  0  0  0  0  0  0
   49.7594   31.7857   31.3789 H   0  0  0  0  0  0  0  0  0  0  0  0
   48.2688   32.7805   32.7389 H   0  0  0  0  0  0  0  0  0  0  0  0
   47.1019   33.1008   31.3720 H   0  0  0  0  0  0  0  0  0  0  0  0
   45.9611   31.1855   31.7039 H   0  0  0  0  0  0  0  0  0  0  0  0
   47.4447   30.2615   32.1695 H   0  0  0  0  0  0  0  0  0  0  0  0
   46.3889   30.3167   34.2115 H   0  0  0  0  0  0  0  0  0  0  0  0
   47.3123   31.8816   34.2896 H   0  0  0  0  0  0  0  0  0  0  0  0
   44.7040   32.2083   33.0232 H   0  0  0  0  0  0  0  0  0  0  0  0
   44.5970   31.5306   34.7135 H   0  0  0  0  0  0  0  0  0  0  0  0
  1  2  1  0
  2  3  1  0
  3  4  1  0
  4  5  1  0
  5  6  1  0
  6  7  2  0
  7  8  1  0
  8  9  1  0
  9 10  2  0
 10 11  1  0
 11 12  1  0
 12 13  1  0
 13 14  1  0
 14 15  1  0
 15 16  1  0
 16 17  1  0
 17 18  1  0
 18 19  2  0
 18 20  1  0
  1 21  1  0
  1 22  1  0
  1 23  1  0
  2 24  1  0
  2 25  1  0
  3 26  1  0
  3 27  1  0
  4 28  1  0
  4 29  1  0
  5 30  1  0
  5 31  1  0
  6 32  1  0
  7 33  1  0
  8 34  1  0
  8 35  1  0
  9 36  1  0
 10 37  1  0
 11 38  1  0
 11 39  1  0
 12 40  1  0
 12 41  1  0
 13 42  1  0
 13 43  1  0
 14 44  1  0
 14 45  1  0
 15 46  1  0
 15 47  1  0
 16 48  1  0
 16 49  1  0
 17 50  1  0
 17 51  1  0
M  CHG  1  20  -1
M  END
>  <meeko>  (13) 
{"is_sidechain": [false], "free_energy": -5.226, "intermolecular_energy": -9.303, "internal_energy": -1.766}

$$$$
linoleate_run02
     RDKit          3D

 51 50  0  0  0  0  0  0  0  0999 V2000
   46.5570   30.4330   25.5180 C   0  0  0  0  0  0  0  0  0  0  0  0
   46.8800   30.3980   27.0030 C   0  0  0  0  0  0  0  0  0  0  0  0
   48.2620   29.8200   27.3150 C   0  0  0  0  0  0  0  0  0  0  0  0
   49.3070   30.1330   26.2400 C   0  0  0  0  0  0  0  0  0  0  0  0
   50.0230   31.4570   26.5350 C   0  0  0  0  0  0  0  0  0  0  0  0
   49.8920   32.5430   25.5010 C   0  0  0  0  0  0  0  0  0  0  0  0
   49.0130   33.5580   25.4930 C   0  0  0  0  0  0  0  0  0  0  0  0
   47.9790   33.7690   26.5620 C   0  0  0  0  0  0  0  0  0  0  0  0
   46.7390   34.4070   26.0100 C   0  0  0  0  0  0  0  0  0  0  0  0
   46.6580   35.6990   25.6600 C   0  0  0  0  0  0  0  0  0  0  0  0
   47.8000   36.6680   25.7760 C   0  0  0  0  0  0  0  0  0  0  0  0
   47.4620   37.8980   26.6260 C   0  0  0  0  0  0  0  0  0  0  0  0
   48.2520   37.9640   27.9380 C   0  0  0  0  0  0  0  0  0  0  0  0
   47.6730   37.0700   29.0390 C   0  0  0  0  0  0  0  0  0  0  0  0
   48.6900   36.0790   29.6130 C   0  0  0  0  0  0  0  0  0  0  0  0
   48.0310   35.1360   30.6270 C   0  0  0  0  0  0  0  0  0  0  0  0
   48.2570   35.5810   32.0710 C   0  0  0  0  0  0  0  0  0  0  0  0
   47.0130   36.1380   32.7210 C   0  0  0  0  0  0  0  0  0  0  0  0
   45.9190   35.5960   32.7650 O   0  0  0  0  0  0  0  0  0  0  0  0
   47.2830   37.3390   33.2930 O   0  0  0  0  0  0  0  0  0  0  0  0
   45.4719   30.5506   25.3815 H   0  0  0  0  0  0  0  0  0  0  0  0
   47.0795   31.2798   25.0490 H   0  0  0  0  0  0  0  0  0  0  0  0
   46.8859   29.4940   25.0490 H   0  0  0  0  0  0  0  0  0  0  0  0
   46.8366   31.4257   27.3928 H   0  0  0  0  0  0  0  0  0  0  0  0
   46.1392   29.7388   27.4792 H   0  0  0  0  0  0  0  0  0  0  0  0
   48.6082   30.2398   28.2710 H   0  0  0  0  0  0  0  0  0  0  0  0
   48.1555   28.7260   27.3567 H   0  0  0  0  0  0  0  0  0  0  0  0
   50.0491   29.3214   26.2132 H   0  0  0  0  0  0  0  0  0  0  0  0
   48.7952   30.2210   25.2703 H   0  0  0  0  0  0  0  0  0  0  0  0
   49.6224   31.8485   27.4817 H   0  0  0  0  0  0  0  0  0  0  0  0
   51.0940   31.2071   26.5567 H   0  0  0  0  0  0  0  0  0  0  0  0
   50.5958   32.5003   24.6567 H   0  0  0  0  0  0  0  0  0  0  0  0
   49.0522   34.2737   24.6586 H   0  0  0  0  0  0  0  0  0  0  0  0
   47.7149   32.7955   27.0008 H   0  0  0  0  0  0  0  0  0  0  0  0
   48.4024   34.4403   27.3236 H   0  0  0  0  0  0  0  0  0  0  0  0
   45.8445   33.7790   25.8851 H   0  0  0  0  0  0  0  0  0  0  0  0
   45.7007   36.0704   25.2655 H   0  0  0  0  0  0  0  0  0  0  0  0
   48.6540   36.1490   26.2356 H   0  0  0  0  0  0  0  0  0  0  0  0
   48.0316   37.0244   24.7614 H   0  0  0  0  0  0  0  0  0  0  0  0
   47.6852   38.8006   26.0383 H   0  0  0  0  0  0  0  0  0  0  0  0
   46.3965   37.8285   26.8904 H   0  0  0  0  0  0  0  0  0  0  0  0
   49.2865   37.6474   27.7391 H   0  0  0  0  0  0  0  0  0  0  0  0
   48.1985   39.0017   28.2989 H   0  0  0  0  0  0  0  0  0  0  0  0
   47.3119   37.7120   29.8560 H   0  0  0  0  0  0  0  0  0  0  0  0
   46.8628   36.4795   28.5863 H   0  0  0  0  0  0  0  0  0  0  0  0
   49.1141   35.4832   28.7913 H   0  0  0  0  0  0  0  0  0  0  0  0
   49.4796   36.6471   30.1265 H   0  0  0  0  0  0  0  0  0  0  0  0
   46.9489   35.1081   30.4315 H   0  0  0  0  0  0  0  0  0  0  0  0
   48.4888   34.1430   30.5072 H   0  0  0  0  0  0  0  0  0  0  0  0
   48.5988   34.7138   32.6551 H   0  0  0  0  0  0  0  0  0  0  0  0
   49.0060   36.3864   32.0525 H   0  0  0  0  0  0  0  0  0  0  0  0
  1  2  1  0
  2  3  1  0
  3  4  1  0
  4  5  1  0
  5  6  1  0
  6  7  2  0
  7  8  1  0
  8  9  1  0
  9 10  2  0
 10 11  1  0
 11 12  1  0
 12 13  1  0
 13 14  1  0
 14 15  1  0
 15 16  1  0
 16 17  1  0
 17 18  1  0
 18 19  2  0
 18 20  1  0
  1 21  1  0
  1 22  1  0
  1 23  1  0
  2 24  1  0
  2 25  1  0
  3 26  1  0
  3 27  1  0
  4 28  1  0
  4 29  1  0
  5 30  1  0
  5 31  1  0
  6 32  1  0
  7 33  1  0
  8 34  1  0
  8 35  1  0
  9 36  1  0
 10 37  1  0
 11 38  1  0
 11 39  1  0
 12 40  1  0
 12 41  1  0
 13 42  1  0
 13 43  1  0
 14 44  1  0
 14 45  1  0
 15 46  1  0
 15 47  1  0
 16 48  1  0
 16 49  1  0
 17 50  1  0
 17 51  1  0
M  CHG  1  20  -1
M  END
>  <meeko>  (14) 
{"is_sidechain": [false], "free_energy": -5.216, "intermolecular_energy": -9.211, "internal_energy": -1.84}

$$$$
linoleate_run02
     RDKit          3D

 51 50  0  0  0  0  0  0  0  0999 V2000
   45.3590   34.2770   24.2420 C   0  0  0  0  0  0  0  0  0  0  0  0
   45.9670   34.2530   25.6360 C   0  0  0  0  0  0  0  0  0  0  0  0
   47.4880   34.0850   25.6370 C   0  0  0  0  0  0  0  0  0  0  0  0
   48.2440   35.4060   25.8090 C   0  0  0  0  0  0  0  0  0  0  0  0
   47.3160   36.5090   26.3330 C   0  0  0  0  0  0  0  0  0  0  0  0
   47.9510   37.5890   27.1680 C   0  0  0  0  0  0  0  0  0  0  0  0
   48.1220   37.5940   28.5000 C   0  0  0  0  0  0  0  0  0  0  0  0
   47.6840   36.4710   29.3970 C   0  0  0  0  0  0  0  0  0  0  0  0
   48.8530   35.8230   30.0780 C   0  0  0  0  0  0  0  0  0  0  0  0
   49.1920   34.5360   29.9120 C   0  0  0  0  0  0  0  0  0  0  0  0
   48.4440   33.5840   29.0220 C   0  0  0  0  0  0  0  0  0  0  0  0
   47.9190   32.3510   29.7650 C   0  0  0  0  0  0  0  0  0  0  0  0
   48.7260   32.0130   31.0240 C   0  0  0  0  0  0  0  0  0  0  0  0
   47.9010   32.0990   32.3130 C   0  0  0  0  0  0  0  0  0  0  0  0
   48.6330   32.8070   33.4560 C   0  0  0  0  0  0  0  0  0  0  0  0
   47.9470   34.1290   33.8170 C   0  0  0  0  0  0  0  0  0  0  0  0
   46.7340   34.4180   32.9320 C   0  0  0  0  0  0  0  0  0  0  0  0
   45.4350   34.4520   33.7000 C   0  0  0  0  0  0  0  0  0  0  0  0
   44.3650   34.8730   33.2860 O   0  0  0  0  0  0  0  0  0  0  0  0
   45.6060   33.9120   34.9330 O   0  0  0  0  0  0  0  0  0  0  0  0
   44.2627   34.3203   24.3208 H   0  0  0  0  0  0  0  0  0  0  0  0
   45.7227   35.1615   23.6985 H   0  0  0  0  0  0  0  0  0  0  0  0
   45.6519   33.3666   23.6985 H   0  0  0  0  0  0  0  0  0  0  0  0
   45.7212   35.1998   26.1392 H   0  0  0  0  0  0  0  0  0  0  0  0
   45.5453   33.3810   26.1574 H   0  0  0  0  0  0  0  0  0  0  0  0
   47.7645   33.4144   26.4639 H   0  0  0  0  0  0  0  0  0  0  0  0
   47.7707   33.6734   24.6569 H   0  0  0  0  0  0  0  0  0  0  0  0
   49.0666   35.2587   26.5243 H   0  0  0  0  0  0  0  0  0  0  0  0
   48.6351   35.7150   24.8284 H   0  0  0  0  0  0  0  0  0  0  0  0
   46.8488   36.9926   25.4624 H   0  0  0  0  0  0  0  0  0  0  0  0
   46.6135   35.9982   27.0080 H   0  0  0  0  0  0  0  0  0  0  0  0
   48.3160   38.4738   26.6259 H   0  0  0  0  0  0  0  0  0  0  0  0
   48.6089   38.4671   28.9590 H   0  0  0  0  0  0  0  0  0  0  0  0
   47.0011   36.8699   30.1616 H   0  0  0  0  0  0  0  0  0  0  0  0
   47.1806   35.7125   28.7795 H   0  0  0  0  0  0  0  0  0  0  0  0
   49.4672   36.4384   30.7519 H   0  0  0  0  0  0  0  0  0  0  0  0
   50.0676   34.1557   30.4586 H   0  0  0  0  0  0  0  0  0  0  0  0
   47.5889   34.1166   28.5803 H   0  0  0  0  0  0  0  0  0  0  0  0
   49.1493   33.2291   28.2561 H   0  0  0  0  0  0  0  0  0  0  0  0
   46.8756   32.5383   30.0588 H   0  0  0  0  0  0  0  0  0  0  0  0
   48.0092   31.4948   29.0803 H   0  0  0  0  0  0  0  0  0  0  0  0
   49.1143   30.9885   30.9255 H   0  0  0  0  0  0  0  0  0  0  0  0
   49.5334   32.7559   31.1032 H   0  0  0  0  0  0  0  0  0  0  0  0
   46.9740   32.6506   32.0977 H   0  0  0  0  0  0  0  0  0  0  0  0
   47.7038   31.0681   32.6423 H   0  0  0  0  0  0  0  0  0  0  0  0
   48.6377   32.1519   34.3397 H   0  0  0  0  0  0  0  0  0  0  0  0
   49.6608   33.0249   33.1301 H   0  0  0  0  0  0  0  0  0  0  0  0
   47.6160   34.0804   34.8649 H   0  0  0  0  0  0  0  0  0  0  0  0
   48.6758   34.9381   33.6611 H   0  0  0  0  0  0  0  0  0  0  0  0
   46.8794   35.3944   32.4468 H   0  0  0  0  0  0  0  0  0  0  0  0
   46.6605   33.6007   32.1994 H   0  0  0  0  0  0  0  0  0  0  0  0
  1  2  1  0
  2  3  1  0
  3  4  1  0
  4  5  1  0
  5  6  1  0
  6  7  2  0
  7  8  1  0
  8  9  1  0
  9 10  2  0
 10 11  1  0
 11 12  1  0
 12 13  1  0
 13 14  1  0
 14 15  1  0
 15 16  1  0
 16 17  1  0
 17 18  1  0
 18 19  2  0
 18 20  1  0
  1 21  1  0
  1 22  1  0
  1 23  1  0
  2 24  1  0
  2 25  1  0
  3 26  1  0
  3 27  1  0
  4 28  1  0
  4 29  1  0
  5 30  1  0
  5 31  1  0
  6 32  1  0
  7 33  1  0
  8 34  1  0
  8 35  1  0
  9 36  1  0
 10 37  1  0
 11 38  1  0
 11 39  1  0
 12 40  1  0
 12 41  1  0
 13 42  1  0
 13 43  1  0
 14 44  1  0
 14 45  1  0
 15 46  1  0
 15 47  1  0
 16 48  1  0
 16 49  1  0
 17 50  1  0
 17 51  1  0
M  CHG  1  20  -1
M  END
>  <meeko>  (15) 
{"is_sidechain": [false], "free_energy": -5.181, "intermolecular_energy": -8.806, "internal_energy": -2.181}

$$$$
linoleate_run02
     RDKit          3D

 51 50  0  0  0  0  0  0  0  0999 V2000
   47.8690   33.0870   27.8670 C   0  0  0  0  0  0  0  0  0  0  0  0
   46.5440   33.6380   27.3640 C   0  0  0  0  0  0  0  0  0  0  0  0
   46.4790   33.7800   25.8420 C   0  0  0  0  0  0  0  0  0  0  0  0
   46.4150   35.2360   25.3710 C   0  0  0  0  0  0  0  0  0  0  0  0
   47.6680   36.0100   25.7970 C   0  0  0  0  0  0  0  0  0  0  0  0
   47.4850   37.4670   26.1300 C   0  0  0  0  0  0  0  0  0  0  0  0
   47.8640   38.1000   27.2520 C   0  0  0  0  0  0  0  0  0  0  0  0
   48.5560   37.4160   28.3970 C   0  0  0  0  0  0  0  0  0  0  0  0
   47.5750   36.7520   29.3170 C   0  0  0  0  0  0  0  0  0  0  0  0
   47.9310   35.9720   30.3480 C   0  0  0  0  0  0  0  0  0  0  0  0
   49.3570   35.6690   30.7110 C   0  0  0  0  0  0  0  0  0  0  0  0
   49.6000   35.6400   32.2240 C   0  0  0  0  0  0  0  0  0  0  0  0
   50.8630   36.3970   32.6500 C   0  0  0  0  0  0  0  0  0  0  0  0
   52.1320   35.9050   31.9450 C   0  0  0  0  0  0  0  0  0  0  0  0
   53.3490   35.8300   32.8700 C   0  0  0  0  0  0  0  0  0  0  0  0
   52.9540   36.1010   34.3270 C   0  0  0  0  0  0  0  0  0  0  0  0
   53.1750   34.8860   35.2270 C   0  0  0  0  0  0  0  0  0  0  0  0
   51.9030   34.1320   35.5300 C   0  0  0  0  0  0  0  0  0  0  0  0
   51.1740   33.5920   34.7130 O   0  0  0  0  0  0  0  0  0  0  0  0
   51.6830   34.1070   36.8690 O   0  0  0  0  0  0  0  0  0  0  0  0
   47.8717   33.0859   28.9670 H   0  0  0  0  0  0  0  0  0  0  0  0
   48.0020   32.0590   27.4989 H   0  0  0  0  0  0  0  0  0  0  0  0
   48.6917   33.7176   27.4989 H   0  0  0  0  0  0  0  0  0  0  0  0
   45.7405   32.9587   27.6847 H   0  0  0  0  0  0  0  0  0  0  0  0
   46.4321   34.6470   27.7876 H   0  0  0  0  0  0  0  0  0  0  0  0
   47.3756   33.3122   25.4092 H   0  0  0  0  0  0  0  0  0  0  0  0
   45.5529   33.2889   25.5085 H   0  0  0  0  0  0  0  0  0  0  0  0
   46.3364   35.2555   24.2740 H   0  0  0  0  0  0  0  0  0  0  0  0
   45.5368   35.7133   25.8303 H   0  0  0  0  0  0  0  0  0  0  0  0
   48.0786   35.5138   26.6887 H   0  0  0  0  0  0  0  0  0  0  0  0
   48.3280   35.9964   24.9171 H   0  0  0  0  0  0  0  0  0  0  0  0
   46.9843   38.0824   25.3681 H   0  0  0  0  0  0  0  0  0  0  0  0
   47.6568   39.1769   27.3374 H   0  0  0  0  0  0  0  0  0  0  0  0
   49.2416   36.6547   27.9965 H   0  0  0  0  0  0  0  0  0  0  0  0
   49.1058   38.1765   28.9708 H   0  0  0  0  0  0  0  0  0  0  0  0
   46.5022   36.9141   29.1356 H   0  0  0  0  0  0  0  0  0  0  0  0
   47.1337   35.5289   30.9628 H   0  0  0  0  0  0  0  0  0  0  0  0
   49.6227   34.6860   30.2950 H   0  0  0  0  0  0  0  0  0  0  0  0
   49.9794   36.4748   30.2946 H   0  0  0  0  0  0  0  0  0  0  0  0
   48.7337   36.0961   32.7255 H   0  0  0  0  0  0  0  0  0  0  0  0
   49.7386   34.5873   32.5115 H   0  0  0  0  0  0  0  0  0  0  0  0
   50.7258   37.4634   32.4178 H   0  0  0  0  0  0  0  0  0  0  0  0
   51.0001   36.2215   33.7272 H   0  0  0  0  0  0  0  0  0  0  0  0
   51.9391   34.9007   31.5399 H   0  0  0  0  0  0  0  0  0  0  0  0
   52.3682   36.6328   31.1547 H   0  0  0  0  0  0  0  0  0  0  0  0
   53.7926   34.8259   32.7990 H   0  0  0  0  0  0  0  0  0  0  0  0
   54.0733   36.5963   32.5565 H   0  0  0  0  0  0  0  0  0  0  0  0
   53.5594   36.9369   34.7073 H   0  0  0  0  0  0  0  0  0  0  0  0
   51.8804   36.3398   34.3442 H   0  0  0  0  0  0  0  0  0  0  0  0
   53.8759   34.2023   34.7257 H   0  0  0  0  0  0  0  0  0  0  0  0
   53.5721   35.2556   36.1839 H   0  0  0  0  0  0  0  0  0  0  0  0
  1  2  1  0
  2  3  1  0
  3  4  1  0
  4  5  1  0
  5  6  1  0
  6  7  2  0
  7  8  1  0
  8  9  1  0
  9 10  2  0
 10 11  1  0
 11 12  1  0
 12 13  1  0
 13 14  1  0
 14 15  1  0
 15 16  1  0
 16 17  1  0
 17 18  1  0
 18 19  2  0
 18 20  1  0
  1 21  1  0
  1 22  1  0
  1 23  1  0
  2 24  1  0
  2 25  1  0
  3 26  1  0
  3 27  1  0
  4 28  1  0
  4 29  1  0
  5 30  1  0
  5 31  1  0
  6 32  1  0
  7 33  1  0
  8 34  1  0
  8 35  1  0
  9 36  1  0
 10 37  1  0
 11 38  1  0
 11 39  1  0
 12 40  1  0
 12 41  1  0
 13 42  1  0
 13 43  1  0
 14 44  1  0
 14 45  1  0
 15 46  1  0
 15 47  1  0
 16 48  1  0
 16 49  1  0
 17 50  1  0
 17 51  1  0
M  CHG  1  20  -1
M  END
>  <meeko>  (16) 
{"is_sidechain": [false], "free_energy": -5.175, "intermolecular_energy": -9.37, "internal_energy": -1.607}

$$$$
linoleate_run02
     RDKit          3D

 51 50  0  0  0  0  0  0  0  0999 V2000
   48.4040   29.7720   30.5130 C   0  0  0  0  0  0  0  0  0  0  0  0
   47.5980   30.7110   31.3970 C   0  0  0  0  0  0  0  0  0  0  0  0
   47.7610   32.1870   31.0280 C   0  0  0  0  0  0  0  0  0  0  0  0
   48.8900   32.4410   30.0240 C   0  0  0  0  0  0  0  0  0  0  0  0
   48.3470   33.0480   28.7240 C   0  0  0  0  0  0  0  0  0  0  0  0
   46.8610   32.9580   28.5020 C   0  0  0  0  0  0  0  0  0  0  0  0
   46.2060   33.0440   27.3340 C   0  0  0  0  0  0  0  0  0  0  0  0
   46.8890   33.2550   26.0130 C   0  0  0  0  0  0  0  0  0  0  0  0
   46.1990   34.3100   25.1990 C   0  0  0  0  0  0  0  0  0  0  0  0
   46.5520   35.6040   25.2030 C   0  0  0  0  0  0  0  0  0  0  0  0
   47.6840   36.1570   26.0220 C   0  0  0  0  0  0  0  0  0  0  0  0
   47.3910   37.5510   26.5880 C   0  0  0  0  0  0  0  0  0  0  0  0
   48.1080   37.8300   27.9140 C   0  0  0  0  0  0  0  0  0  0  0  0
   48.2980   36.5770   28.7750 C   0  0  0  0  0  0  0  0  0  0  0  0
   47.4040   36.5530   30.0170 C   0  0  0  0  0  0  0  0  0  0  0  0
   48.1260   35.9080   31.2070 C   0  0  0  0  0  0  0  0  0  0  0  0
   47.1640   35.4900   32.3170 C   0  0  0  0  0  0  0  0  0  0  0  0
   46.2980   36.6250   32.8100 C   0  0  0  0  0  0  0  0  0  0  0  0
   45.0850   36.7080   32.6920 O   0  0  0  0  0  0  0  0  0  0  0  0
   47.0590   37.5510   33.4450 O   0  0  0  0  0  0  0  0  0  0  0  0
   48.9910   29.0882   31.1438 H   0  0  0  0  0  0  0  0  0  0  0  0
   47.7205   29.1893   29.8779 H   0  0  0  0  0  0  0  0  0  0  0  0
   49.0835   30.3593   29.8779 H   0  0  0  0  0  0  0  0  0  0  0  0
   46.5343   30.4454   31.3082 H   0  0  0  0  0  0  0  0  0  0  0  0
   47.9738   30.5908   32.4238 H   0  0  0  0  0  0  0  0  0  0  0  0
   46.8173   32.5432   30.5893 H   0  0  0  0  0  0  0  0  0  0  0  0
   48.0194   32.7264   31.9512 H   0  0  0  0  0  0  0  0  0  0  0  0
   49.6168   33.1365   30.4691 H   0  0  0  0  0  0  0  0  0  0  0  0
   49.3696   31.4798   29.7871 H   0  0  0  0  0  0  0  0  0  0  0  0
   48.6210   34.1133   28.7142 H   0  0  0  0  0  0  0  0  0  0  0  0
   48.7954   32.4493   27.9174 H   0  0  0  0  0  0  0  0  0  0  0  0
   46.2421   32.8044   29.3983 H   0  0  0  0  0  0  0  0  0  0  0  0
   45.1096   32.9552   27.3445 H   0  0  0  0  0  0  0  0  0  0  0  0
   47.9285   33.5661   26.1938 H   0  0  0  0  0  0  0  0  0  0  0  0
   46.8549   32.3093   25.4521 H   0  0  0  0  0  0  0  0  0  0  0  0
   45.3554   34.0047   24.5626 H   0  0  0  0  0  0  0  0  0  0  0  0
   45.9805   36.2997   24.5710 H   0  0  0  0  0  0  0  0  0  0  0  0
   47.8767   35.4719   26.8608 H   0  0  0  0  0  0  0  0  0  0  0  0
   48.5556   36.2492   25.3573 H   0  0  0  0  0  0  0  0  0  0  0  0
   47.7140   38.3017   25.8517 H   0  0  0  0  0  0  0  0  0  0  0  0
   46.3100   37.6020   26.7851 H   0  0  0  0  0  0  0  0  0  0  0  0
   49.0981   38.2552   27.6929 H   0  0  0  0  0  0  0  0  0  0  0  0
   47.4766   38.5259   28.4859 H   0  0  0  0  0  0  0  0  0  0  0  0
   48.0667   35.6938   28.1615 H   0  0  0  0  0  0  0  0  0  0  0  0
   49.3409   36.5779   29.1249 H   0  0  0  0  0  0  0  0  0  0  0  0
   47.1283   37.5847   30.2808 H   0  0  0  0  0  0  0  0  0  0  0  0
   46.5070   35.9583   29.7895 H   0  0  0  0  0  0  0  0  0  0  0  0
   48.6642   35.0167   30.8523 H   0  0  0  0  0  0  0  0  0  0  0  0
   48.8152   36.6562   31.6257 H   0  0  0  0  0  0  0  0  0  0  0  0
   46.5107   34.6930   31.9322 H   0  0  0  0  0  0  0  0  0  0  0  0
   47.7730   35.1493   33.1673 H   0  0  0  0  0  0  0  0  0  0  0  0
  1  2  1  0
  2  3  1  0
  3  4  1  0
  4  5  1  0
  5  6  1  0
  6  7  2  0
  7  8  1  0
  8  9  1  0
  9 10  2  0
 10 11  1  0
 11 12  1  0
 12 13  1  0
 13 14  1  0
 14 15  1  0
 15 16  1  0
 16 17  1  0
 17 18  1  0
 18 19  2  0
 18 20  1  0
  1 21  1  0
  1 22  1  0
  1 23  1  0
  2 24  1  0
  2 25  1  0
  3 26  1  0
  3 27  1  0
  4 28  1  0
  4 29  1  0
  5 30  1  0
  5 31  1  0
  6 32  1  0
  7 33  1  0
  8 34  1  0
  8 35  1  0
  9 36  1  0
 10 37  1  0
 11 38  1  0
 11 39  1  0
 12 40  1  0
 12 41  1  0
 13 42  1  0
 13 43  1  0
 14 44  1  0
 14 45  1  0
 15 46  1  0
 15 47  1  0
 16 48  1  0
 16 49  1  0
 17 50  1  0
 17 51  1  0
M  CHG  1  20  -1
M  END
>  <meeko>  (17) 
{"is_sidechain": [false], "free_energy": -5.164, "intermolecular_energy": -8.701, "internal_energy": -2.256}

$$$$
linoleate_run02
     RDKit          3D

 51 50  0  0  0  0  0  0  0  0999 V2000
   49.0590   33.0360   26.3950 C   0  0  0  0  0  0  0  0  0  0  0  0
   47.5540   32.8780   26.2400 C   0  0  0  0  0  0  0  0  0  0  0  0
   46.8330   34.1860   25.9080 C   0  0  0  0  0  0  0  0  0  0  0  0
   47.7730   35.3940   25.8310 C   0  0  0  0  0  0  0  0  0  0  0  0
   47.0240   36.6960   26.1400 C   0  0  0  0  0  0  0  0  0  0  0  0
   47.8160   37.7930   26.7990 C   0  0  0  0  0  0  0  0  0  0  0  0
   48.1330   37.9010   28.0990 C   0  0  0  0  0  0  0  0  0  0  0  0
   47.7230   36.8970   29.1390 C   0  0  0  0  0  0  0  0  0  0  0  0
   48.9050   36.1420   29.6700 C   0  0  0  0  0  0  0  0  0  0  0  0
   48.8850   34.8310   29.9550 C   0  0  0  0  0  0  0  0  0  0  0  0
   47.6760   33.9570   29.7760 C   0  0  0  0  0  0  0  0  0  0  0  0
   47.9350   32.4900   30.1360 C   0  0  0  0  0  0  0  0  0  0  0  0
   46.7120   31.7880   30.7360 C   0  0  0  0  0  0  0  0  0  0  0  0
   46.2920   32.3570   32.0950 C   0  0  0  0  0  0  0  0  0  0  0  0
   47.4450   32.4450   33.0980 C   0  0  0  0  0  0  0  0  0  0  0  0
   47.6840   33.8930   33.5400 C   0  0  0  0  0  0  0  0  0  0  0  0
   46.4780   34.7920   33.2690 C   0  0  0  0  0  0  0  0  0  0  0  0
   46.8630   36.1950   32.8650 C   0  0  0  0  0  0  0  0  0  0  0  0
   47.9500   36.7230   33.0430 O   0  0  0  0  0  0  0  0  0  0  0  0
   45.8250   36.8000   32.2320 O   0  0  0  0  0  0  0  0  0  0  0  0
   49.3167   33.0630   27.4641 H   0  0  0  0  0  0  0  0  0  0  0  0
   49.5681   32.1864   25.9165 H   0  0  0  0  0  0  0  0  0  0  0  0
   49.3805   33.9728   25.9165 H   0  0  0  0  0  0  0  0  0  0  0  0
   47.3612   32.1591   25.4301 H   0  0  0  0  0  0  0  0  0  0  0  0
   47.1641   32.5309   27.2083 H   0  0  0  0  0  0  0  0  0  0  0  0
   46.3317   34.0712   24.9356 H   0  0  0  0  0  0  0  0  0  0  0  0
   46.1192   34.3801   26.7221 H   0  0  0  0  0  0  0  0  0  0  0  0
   48.5852   35.2645   26.5615 H   0  0  0  0  0  0  0  0  0  0  0  0
   48.1781   35.4574   24.8103 H   0  0  0  0  0  0  0  0  0  0  0  0
   46.6357   37.0905   25.1894 H   0  0  0  0  0  0  0  0  0  0  0  0
   46.2520   36.4177   26.8725 H   0  0  0  0  0  0  0  0  0  0  0  0
   48.1759   38.5975   26.1408 H   0  0  0  0  0  0  0  0  0  0  0  0
   48.7246   38.7711   28.4200 H   0  0  0  0  0  0  0  0  0  0  0  0
   47.2324   37.4239   29.9707 H   0  0  0  0  0  0  0  0  0  0  0  0
   47.0352   36.1770   28.6715 H   0  0  0  0  0  0  0  0  0  0  0  0
   49.8417   36.6945   29.8352 H   0  0  0  0  0  0  0  0  0  0  0  0
   49.8059   34.3700   30.3416 H   0  0  0  0  0  0  0  0  0  0  0  0
   46.8700   34.3384   30.4202 H   0  0  0  0  0  0  0  0  0  0  0  0
   47.4029   33.9897   28.7109 H   0  0  0  0  0  0  0  0  0  0  0  0
   48.2323   31.9537   29.2228 H   0  0  0  0  0  0  0  0  0  0  0  0
   48.7258   32.4769   30.9005 H   0  0  0  0  0  0  0  0  0  0  0  0
   45.8696   31.8961   30.0369 H   0  0  0  0  0  0  0  0  0  0  0  0
   46.9866   30.7347   30.8949 H   0  0  0  0  0  0  0  0  0  0  0  0
   45.8865   33.3677   31.9399 H   0  0  0  0  0  0  0  0  0  0  0  0
   45.5442   31.6703   32.5183 H   0  0  0  0  0  0  0  0  0  0  0  0
   47.2003   31.8359   33.9807 H   0  0  0  0  0  0  0  0  0  0  0  0
   48.3592   32.0731   32.6122 H   0  0  0  0  0  0  0  0  0  0  0  0
   47.8960   33.9024   34.6193 H   0  0  0  0  0  0  0  0  0  0  0  0
   48.5317   34.2852   32.9590 H   0  0  0  0  0  0  0  0  0  0  0  0
   45.8835   34.3451   32.4585 H   0  0  0  0  0  0  0  0  0  0  0  0
   45.9072   34.8659   34.2064 H   0  0  0  0  0  0  0  0  0  0  0  0
  1  2  1  0
  2  3  1  0
  3  4  1  0
  4  5  1  0
  5  6  1  0
  6  7  2  0
  7  8  1  0
  8  9  1  0
  9 10  2  0
 10 11  1  0
 11 12  1  0
 12 13  1  0
 13 14  1  0
 14 15  1  0
 15 16  1  0
 16 17  1  0
 17 18  1  0
 18 19  2  0
 18 20  1  0
  1 21  1  0
  1 22  1  0
  1 23  1  0
  2 24  1  0
  2 25  1  0
  3 26  1  0
  3 27  1  0
  4 28  1  0
  4 29  1  0
  5 30  1  0
  5 31  1  0
  6 32  1  0
  7 33  1  0
  8 34  1  0
  8 35  1  0
  9 36  1  0
 10 37  1  0
 11 38  1  0
 11 39  1  0
 12 40  1  0
 12 41  1  0
 13 42  1  0
 13 43  1  0
 14 44  1  0
 14 45  1  0
 15 46  1  0
 15 47  1  0
 16 48  1  0
 16 49  1  0
 17 50  1  0
 17 51  1  0
M  CHG  1  20  -1
M  END
>  <meeko>  (18) 
{"is_sidechain": [false], "free_energy": -5.16, "intermolecular_energy": -8.306, "internal_energy": -2.643}

$$$$
linoleate_run02
     RDKit          3D

 51 50  0  0  0  0  0  0  0  0999 V2000
   48.5080   36.2120   29.6800 C   0  0  0  0  0  0  0  0  0  0  0  0
   47.5210   37.0740   28.9090 C   0  0  0  0  0  0  0  0  0  0  0  0
   48.1220   37.7250   27.6620 C   0  0  0  0  0  0  0  0  0  0  0  0
   47.3270   37.4370   26.3850 C   0  0  0  0  0  0  0  0  0  0  0  0
   47.6220   36.0270   25.8570 C   0  0  0  0  0  0  0  0  0  0  0  0
   46.5390   35.3650   25.0500 C   0  0  0  0  0  0  0  0  0  0  0  0
   45.8980   34.2190   25.3300 C   0  0  0  0  0  0  0  0  0  0  0  0
   46.1830   33.3870   26.5490 C   0  0  0  0  0  0  0  0  0  0  0  0
   46.8090   32.0730   26.1840 C   0  0  0  0  0  0  0  0  0  0  0  0
   46.8870   31.0270   27.0210 C   0  0  0  0  0  0  0  0  0  0  0  0
   46.3550   31.0420   28.4250 C   0  0  0  0  0  0  0  0  0  0  0  0
   44.9850   30.3650   28.5570 C   0  0  0  0  0  0  0  0  0  0  0  0
   44.3000   30.6390   29.9000 C   0  0  0  0  0  0  0  0  0  0  0  0
   45.2680   31.1170   30.9880 C   0  0  0  0  0  0  0  0  0  0  0  0
   45.0240   30.4590   32.3480 C   0  0  0  0  0  0  0  0  0  0  0  0
   45.8640   31.1270   33.4440 C   0  0  0  0  0  0  0  0  0  0  0  0
   45.0350   32.0570   34.3290 C   0  0  0  0  0  0  0  0  0  0  0  0
   45.3790   33.5150   34.1420 C   0  0  0  0  0  0  0  0  0  0  0  0
   44.8140   34.2980   33.3940 O   0  0  0  0  0  0  0  0  0  0  0  0
   46.4070   33.8600   34.9590 O   0  0  0  0  0  0  0  0  0  0  0  0
   48.3499   36.3501   30.7598 H   0  0  0  0  0  0  0  0  0  0  0  0
   48.3533   35.1547   29.4190 H   0  0  0  0  0  0  0  0  0  0  0  0
   49.5349   36.5076   29.4190 H   0  0  0  0  0  0  0  0  0  0  0  0
   46.6757   36.4422   28.5986 H   0  0  0  0  0  0  0  0  0  0  0  0
   47.2099   37.8880   29.5803 H   0  0  0  0  0  0  0  0  0  0  0  0
   48.1519   38.8137   27.8165 H   0  0  0  0  0  0  0  0  0  0  0  0
   49.1263   37.2981   27.5237 H   0  0  0  0  0  0  0  0  0  0  0  0
   46.2523   37.5210   26.6042 H   0  0  0  0  0  0  0  0  0  0  0  0
   47.6231   38.1667   25.6170 H   0  0  0  0  0  0  0  0  0  0  0  0
   48.5185   36.0899   25.2227 H   0  0  0  0  0  0  0  0  0  0  0  0
   47.7356   35.4013   26.7546 H   0  0  0  0  0  0  0  0  0  0  0  0
   46.2378   35.8783   24.1249 H   0  0  0  0  0  0  0  0  0  0  0  0
   45.1237   33.8707   24.6307 H   0  0  0  0  0  0  0  0  0  0  0  0
   46.8701   33.9399   27.2064 H   0  0  0  0  0  0  0  0  0  0  0  0
   45.2298   33.1852   27.0596 H   0  0  0  0  0  0  0  0  0  0  0  0
   47.2277   31.9608   25.1730 H   0  0  0  0  0  0  0  0  0  0  0  0
   47.3678   30.1066   26.6580 H   0  0  0  0  0  0  0  0  0  0  0  0
   47.0694   30.5163   29.0756 H   0  0  0  0  0  0  0  0  0  0  0  0
   46.2297   32.0951   28.7169 H   0  0  0  0  0  0  0  0  0  0  0  0
   44.3339   30.7347   27.7512 H   0  0  0  0  0  0  0  0  0  0  0  0
   45.1505   29.2795   28.4913 H   0  0  0  0  0  0  0  0  0  0  0  0
   43.5338   31.4138   29.7495 H   0  0  0  0  0  0  0  0  0  0  0  0
   43.8664   29.6886   30.2444 H   0  0  0  0  0  0  0  0  0  0  0  0
   46.2947   30.8860   30.6677 H   0  0  0  0  0  0  0  0  0  0  0  0
   45.1064   32.1976   31.1156 H   0  0  0  0  0  0  0  0  0  0  0  0
   43.9586   30.5513   32.6056 H   0  0  0  0  0  0  0  0  0  0  0  0
   45.3156   29.4005   32.2810 H   0  0  0  0  0  0  0  0  0  0  0  0
   46.3091   30.3434   34.0747 H   0  0  0  0  0  0  0  0  0  0  0  0
   46.6365   31.7349   32.9504 H   0  0  0  0  0  0  0  0  0  0  0  0
   43.9715   31.9144   34.0870 H   0  0  0  0  0  0  0  0  0  0  0  0
   45.2577   31.7991   35.3749 H   0  0  0  0  0  0  0  0  0  0  0  0
  1  2  1  0
  2  3  1  0
  3  4  1  0
  4  5  1  0
  5  6  1  0
  6  7  2  0
  7  8  1  0
  8  9  1  0
  9 10  2  0
 10 11  1  0
 11 12  1  0
 12 13  1  0
 13 14  1  0
 14 15  1  0
 15 16  1  0
 16 17  1  0
 17 18  1  0
 18 19  2  0
 18 20  1  0
  1 21  1  0
  1 22  1  0
  1 23  1  0
  2 24  1  0
  2 25  1  0
  3 26  1  0
  3 27  1  0
  4 28  1  0
  4 29  1  0
  5 30  1  0
  5 31  1  0
  6 32  1  0
  7 33  1  0
  8 34  1  0
  8 35  1  0
  9 36  1  0
 10 37  1  0
 11 38  1  0
 11 39  1  0
 12 40  1  0
 12 41  1  0
 13 42  1  0
 13 43  1  0
 14 44  1  0
 14 45  1  0
 15 46  1  0
 15 47  1  0
 16 48  1  0
 16 49  1  0
 17 50  1  0
 17 51  1  0
M  CHG  1  20  -1
M  END
>  <meeko>  (19) 
{"is_sidechain": [false], "free_energy": -5.147, "intermolecular_energy": -9.829, "internal_energy": -1.097}

$$$$
linoleate_run02
     RDKit          3D

 51 50  0  0  0  0  0  0  0  0999 V2000
   48.8860   35.2320   32.2780 C   0  0  0  0  0  0  0  0  0  0  0  0
   47.6880   35.5240   31.3890 C   0  0  0  0  0  0  0  0  0  0  0  0
   47.9800   35.3590   29.8960 C   0  0  0  0  0  0  0  0  0  0  0  0
   48.3420   36.6740   29.1990 C   0  0  0  0  0  0  0  0  0  0  0  0
   47.2150   37.1320   28.2650 C   0  0  0  0  0  0  0  0  0  0  0  0
   47.6060   37.4960   26.8580 C   0  0  0  0  0  0  0  0  0  0  0  0
   48.0210   36.6670   25.8870 C   0  0  0  0  0  0  0  0  0  0  0  0
   48.1660   35.1830   26.0700 C   0  0  0  0  0  0  0  0  0  0  0  0
   47.1160   34.4290   25.3080 C   0  0  0  0  0  0  0  0  0  0  0  0
   46.1720   33.6740   25.8890 C   0  0  0  0  0  0  0  0  0  0  0  0
   46.0480   33.4900   27.3750 C   0  0  0  0  0  0  0  0  0  0  0  0
   46.7370   32.2180   27.8830 C   0  0  0  0  0  0  0  0  0  0  0  0
   46.3450   31.8480   29.3170 C   0  0  0  0  0  0  0  0  0  0  0  0
   47.5480   31.6980   30.2550 C   0  0  0  0  0  0  0  0  0  0  0  0
   47.1800   31.8140   31.7370 C   0  0  0  0  0  0  0  0  0  0  0  0
   45.6600   31.8860   31.9250 C   0  0  0  0  0  0  0  0  0  0  0  0
   45.2600   32.0190   33.3940 C   0  0  0  0  0  0  0  0  0  0  0  0
   45.3640   33.4330   33.9110 C   0  0  0  0  0  0  0  0  0  0  0  0
   45.9300   33.7860   34.9350 O   0  0  0  0  0  0  0  0  0  0  0  0
   44.7560   34.2910   33.0520 O   0  0  0  0  0  0  0  0  0  0  0  0
   48.5857   35.3052   33.3337 H   0  0  0  0  0  0  0  0  0  0  0  0
   49.2569   34.2172   32.0718 H   0  0  0  0  0  0  0  0  0  0  0  0
   49.6823   35.9624   32.0718 H   0  0  0  0  0  0  0  0  0  0  0  0
   46.8753   34.8351   31.6629 H   0  0  0  0  0  0  0  0  0  0  0  0
   47.4149   36.5773   31.5504 H   0  0  0  0  0  0  0  0  0  0  0  0
   48.8212   34.6597   29.7802 H   0  0  0  0  0  0  0  0  0  0  0  0
   47.0599   34.9835   29.4243 H   0  0  0  0  0  0  0  0  0  0  0  0
   48.5146   37.4487   29.9606 H   0  0  0  0  0  0  0  0  0  0  0  0
   49.2497   36.5131   28.5988 H   0  0  0  0  0  0  0  0  0  0  0  0
   46.4797   36.3161   28.2056 H   0  0  0  0  0  0  0  0  0  0  0  0
   46.8344   38.0640   28.7084 H   0  0  0  0  0  0  0  0  0  0  0  0
   47.5448   38.5624   26.5954 H   0  0  0  0  0  0  0  0  0  0  0  0
   48.2680   37.0972   24.9052 H   0  0  0  0  0  0  0  0  0  0  0  0
   49.1589   34.8741   25.7112 H   0  0  0  0  0  0  0  0  0  0  0  0
   48.0470   34.9542   27.1393 H   0  0  0  0  0  0  0  0  0  0  0  0
   47.1208   34.4995   24.2103 H   0  0  0  0  0  0  0  0  0  0  0  0
   45.4471   33.1601   25.2405 H   0  0  0  0  0  0  0  0  0  0  0  0
   46.5031   34.3580   27.8744 H   0  0  0  0  0  0  0  0  0  0  0  0
   44.9765   33.3972   27.6058 H   0  0  0  0  0  0  0  0  0  0  0  0
   46.4632   31.3841   27.2200 H   0  0  0  0  0  0  0  0  0  0  0  0
   47.8199   32.4110   27.8807 H   0  0  0  0  0  0  0  0  0  0  0  0
   45.6889   32.6366   29.7141 H   0  0  0  0  0  0  0  0  0  0  0  0
   45.8408   30.8713   29.2752 H   0  0  0  0  0  0  0  0  0  0  0  0
   48.0025   30.7109   30.0845 H   0  0  0  0  0  0  0  0  0  0  0  0
   48.2428   32.5197   30.0270 H   0  0  0  0  0  0  0  0  0  0  0  0
   47.5669   30.9348   32.2730 H   0  0  0  0  0  0  0  0  0  0  0  0
   47.6252   32.7373   32.1360 H   0  0  0  0  0  0  0  0  0  0  0  0
   45.2769   32.7578   31.3743 H   0  0  0  0  0  0  0  0  0  0  0  0
   45.2303   30.9478   31.5441 H   0  0  0  0  0  0  0  0  0  0  0  0
   44.2190   31.6814   33.5052 H   0  0  0  0  0  0  0  0  0  0  0  0
   45.9579   31.4035   33.9806 H   0  0  0  0  0  0  0  0  0  0  0  0
  1  2  1  0
  2  3  1  0
  3  4  1  0
  4  5  1  0
  5  6  1  0
  6  7  2  0
  7  8  1  0
  8  9  1  0
  9 10  2  0
 10 11  1  0
 11 12  1  0
 12 13  1  0
 13 14  1  0
 14 15  1  0
 15 16  1  0
 16 17  1  0
 17 18  1  0
 18 19  2  0
 18 20  1  0
  1 21  1  0
  1 22  1  0
  1 23  1  0
  2 24  1  0
  2 25  1  0
  3 26  1  0
  3 27  1  0
  4 28  1  0
  4 29  1  0
  5 30  1  0
  5 31  1  0
  6 32  1  0
  7 33  1  0
  8 34  1  0
  8 35  1  0
  9 36  1  0
 10 37  1  0
 11 38  1  0
 11 39  1  0
 12 40  1  0
 12 41  1  0
 13 42  1  0
 13 43  1  0
 14 44  1  0
 14 45  1  0
 15 46  1  0
 15 47  1  0
 16 48  1  0
 16 49  1  0
 17 50  1  0
 17 51  1  0
M  CHG  1  20  -1
M  END
>  <meeko>  (20) 
{"is_sidechain": [false], "free_energy": -5.083, "intermolecular_energy": -8.649, "internal_energy": -2.161}

$$$$
