DKA_neutral_vinardo_focused_run01
     RDKit          3D

 32 31  0  0  0  0  0  0  0  0999 V2000
   46.0040   34.1250   25.1250 C   0  0  0  0  0  0  0  0  0  0  0  0
   46.6940   35.3870   25.0830 C   0  0  0  0  0  0  0  0  0  0  0  0
   47.3980   35.8950   26.1760 C   0  0  0  0  0  0  0  0  0  0  0  0
   47.5590   37.3350   26.3630 C   0  0  0  0  0  0  0  0  0  0  0  0
   48.0560   37.7170   27.6970 C   0  0  0  0  0  0  0  0  0  0  0  0
   47.6250   37.0890   28.8920 C   0  0  0  0  0  0  0  0  0  0  0  0
   48.5400   36.3290   29.7620 C   0  0  0  0  0  0  0  0  0  0  0  0
   47.8260   35.3540   30.7100 C   0  0  0  0  0  0  0  0  0  0  0  0
   47.8980   35.6640   32.1550 C   0  0  0  0  0  0  0  0  0  0  0  0
   46.8360   36.5910   32.7310 C   0  0  0  0  0  0  0  0  0  0  0  0
   47.1860   37.5390   33.4810 O   0  0  0  0  0  0  0  0  0  0  0  0
   45.6330   36.3990   32.4170 O   0  0  0  0  0  0  0  0  0  0  0  0
   45.8427   33.8300   26.1724 H   0  0  0  0  0  0  0  0  0  0  0  0
   45.0329   34.2210   24.6174 H   0  0  0  0  0  0  0  0  0  0  0  0
   46.6090   33.3593   24.6174 H   0  0  0  0  0  0  0  0  0  0  0  0
   47.4208   35.3102   24.2608 H   0  0  0  0  0  0  0  0  0  0  0  0
   45.8581   36.0977   25.0040 H   0  0  0  0  0  0  0  0  0  0  0  0
   46.8924   35.5171   27.0769 H   0  0  0  0  0  0  0  0  0  0  0  0
   48.4269   35.5598   25.9785 H   0  0  0  0  0  0  0  0  0  0  0  0
   48.2716   37.7035   25.6104 H   0  0  0  0  0  0  0  0  0  0  0  0
   46.5596   37.7822   26.2569 H   0  0  0  0  0  0  0  0  0  0  0  0
   49.1475   37.5851   27.6625 H   0  0  0  0  0  0  0  0  0  0  0  0
   47.6265   38.7232   27.8110 H   0  0  0  0  0  0  0  0  0  0  0  0
   47.1987   37.8858   29.5191 H   0  0  0  0  0  0  0  0  0  0  0  0
   46.9699   36.2945   28.5053 H   0  0  0  0  0  0  0  0  0  0  0  0
   49.2265   35.7528   29.1243 H   0  0  0  0  0  0  0  0  0  0  0  0
   49.0660   37.0615   30.3919 H   0  0  0  0  0  0  0  0  0  0  0  0
   46.7635   35.3301   30.4262 H   0  0  0  0  0  0  0  0  0  0  0  0
   48.3530   34.3957   30.5919 H   0  0  0  0  0  0  0  0  0  0  0  0
   47.8331   34.7106   32.6997 H   0  0  0  0  0  0  0  0  0  0  0  0
   48.8434   36.2131   32.2761 H   0  0  0  0  0  0  0  0  0  0  0  0
   44.9410   36.3350   33.1220 H   0  0  0  0  0  0  0  0  0  0  0  0
  1  2  1  0
  2  3  1  0
  3  4  1  0
  4  5  1  0
  5  6  1  0
  6  7  1  0
  7  8  1  0
  8  9  1  0
  9 10  1  0
 10 11  2  0
 10 12  1  0
  1 13  1  0
  1 14  1  0
  1 15  1  0
  2 16  1  0
  2 17  1  0
  3 18  1  0
  3 19  1  0
  4 20  1  0
  4 21  1  0
  5 22  1  0
  5 23  1  0
  6 24  1  0
  6 25  1  0
  7 26  1  0
  7 27  1  0
  8 28  1  0
  8 29  1  0
  9 30  1  0
  9 31  1  0
 12 32  1  0
M  END
>  <meeko>  (1) 
{"is_sidechain": [false], "free_energy": -4.971, "intermolecular_energy": -7.441, "internal_energy": -0.526}

$$$$
DKA_neutral_vinardo_focused_run01
     RDKit          3D

 32 31  0  0  0  0  0  0  0  0999 V2000
   49.3340   32.5280   25.4610 C   0  0  0  0  0  0  0  0  0  0  0  0
   48.7050   33.8120   25.6190 C   0  0  0  0  0  0  0  0  0  0  0  0
   47.3260   33.9920   25.5050 C   0  0  0  0  0  0  0  0  0  0  0  0
   46.7330   35.3240   25.5940 C   0  0  0  0  0  0  0  0  0  0  0  0
   47.7120   36.4070   25.7990 C   0  0  0  0  0  0  0  0  0  0  0  0
   47.4590   37.5340   26.6190 C   0  0  0  0  0  0  0  0  0  0  0  0
   48.1970   37.7860   27.8690 C   0  0  0  0  0  0  0  0  0  0  0  0
   47.5650   37.1280   29.1050 C   0  0  0  0  0  0  0  0  0  0  0  0
   48.3880   36.1250   29.8150 C   0  0  0  0  0  0  0  0  0  0  0  0
   48.2910   34.6770   29.3510 C   0  0  0  0  0  0  0  0  0  0  0  0
   47.1580   34.1410   29.2350 O   0  0  0  0  0  0  0  0  0  0  0  0
   49.3520   34.0630   29.0680 O   0  0  0  0  0  0  0  0  0  0  0  0
   49.5444   32.0984   26.4515 H   0  0  0  0  0  0  0  0  0  0  0  0
   48.6627   31.8567   24.9053 H   0  0  0  0  0  0  0  0  0  0  0  0
   50.2758   32.6470   24.9053 H   0  0  0  0  0  0  0  0  0  0  0  0
   48.9764   34.1629   26.6256 H   0  0  0  0  0  0  0  0  0  0  0  0
   49.0761   34.3541   24.7367 H   0  0  0  0  0  0  0  0  0  0  0  0
   47.0372   33.5855   24.5245 H   0  0  0  0  0  0  0  0  0  0  0  0
   46.9408   33.4940   26.4070 H   0  0  0  0  0  0  0  0  0  0  0  0
   46.1888   35.5229   24.6590 H   0  0  0  0  0  0  0  0  0  0  0  0
   46.0757   35.3199   26.4760 H   0  0  0  0  0  0  0  0  0  0  0  0
   48.6112   35.9275   26.2130 H   0  0  0  0  0  0  0  0  0  0  0  0
   47.7428   36.8660   24.7998 H   0  0  0  0  0  0  0  0  0  0  0  0
   47.6238   38.4169   25.9839 H   0  0  0  0  0  0  0  0  0  0  0  0
   46.4480   37.3170   26.9943 H   0  0  0  0  0  0  0  0  0  0  0  0
   49.2191   37.3963   27.7530 H   0  0  0  0  0  0  0  0  0  0  0  0
   48.1778   38.8726   28.0392 H   0  0  0  0  0  0  0  0  0  0  0  0
   47.3216   37.9271   29.8207 H   0  0  0  0  0  0  0  0  0  0  0  0
   46.6949   36.5726   28.7249 H   0  0  0  0  0  0  0  0  0  0  0  0
   49.4395   36.4325   29.7162 H   0  0  0  0  0  0  0  0  0  0  0  0
   47.9937   36.1163   30.8419 H   0  0  0  0  0  0  0  0  0  0  0  0
   50.1470   34.5650   28.7580 H   0  0  0  0  0  0  0  0  0  0  0  0
  1  2  1  0
  2  3  1  0
  3  4  1  0
  4  5  1  0
  5  6  1  0
  6  7  1  0
  7  8  1  0
  8  9  1  0
  9 10  1  0
 10 11  2  0
 10 12  1  0
  1 13  1  0
  1 14  1  0
  1 15  1  0
  2 16  1  0
  2 17  1  0
  3 18  1  0
  3 19  1  0
  4 20  1  0
  4 21  1  0
  5 22  1  0
  5 23  1  0
  6 24  1  0
  6 25  1  0
  7 26  1  0
  7 27  1  0
  8 28  1  0
  8 29  1  0
  9 30  1  0
  9 31  1  0
 12 32  1  0
M  END
>  <meeko>  (2) 
{"is_sidechain": [false], "free_energy": -4.848, "intermolecular_energy": -6.499, "internal_energy": -1.284}

$$$$
DKA_neutral_vinardo_focused_run01
     RDKit          3D

 32 31  0  0  0  0  0  0  0  0999 V2000
   49.5060   32.9930   25.4840 C   0  0  0  0  0  0  0  0  0  0  0  0
   48.5530   33.8880   26.0850 C   0  0  0  0  0  0  0  0  0  0  0  0
   47.3070   34.1510   25.5140 C   0  0  0  0  0  0  0  0  0  0  0  0
   46.7380   35.4970   25.5410 C   0  0  0  0  0  0  0  0  0  0  0  0
   47.7220   36.5610   25.8140 C   0  0  0  0  0  0  0  0  0  0  0  0
   47.5010   37.5950   26.7560 C   0  0  0  0  0  0  0  0  0  0  0  0
   48.2180   37.6620   28.0420 C   0  0  0  0  0  0  0  0  0  0  0  0
   47.5300   36.8890   29.1770 C   0  0  0  0  0  0  0  0  0  0  0  0
   48.1680   35.6220   29.5970 C   0  0  0  0  0  0  0  0  0  0  0  0
   49.2940   35.7050   30.6190 C   0  0  0  0  0  0  0  0  0  0  0  0
   49.1040   36.3250   31.6980 O   0  0  0  0  0  0  0  0  0  0  0  0
   50.3810   35.1240   30.3660 O   0  0  0  0  0  0  0  0  0  0  0  0
   50.0646   32.4684   26.2731 H   0  0  0  0  0  0  0  0  0  0  0  0
   48.9761   32.2585   24.8597 H   0  0  0  0  0  0  0  0  0  0  0  0
   50.2058   33.5679   24.8597 H   0  0  0  0  0  0  0  0  0  0  0  0
   48.3503   33.4885   27.0896 H   0  0  0  0  0  0  0  0  0  0  0  0
   49.0586   34.8592   25.9796 H   0  0  0  0  0  0  0  0  0  0  0  0
   47.3808   33.8634   24.4548 H   0  0  0  0  0  0  0  0  0  0  0  0
   46.6197   33.5837   26.1587 H   0  0  0  0  0  0  0  0  0  0  0  0
   46.2759   35.6964   24.5629 H   0  0  0  0  0  0  0  0  0  0  0  0
   46.0110   35.5177   26.3663 H   0  0  0  0  0  0  0  0  0  0  0  0
   48.6402   36.0485   26.1370 H   0  0  0  0  0  0  0  0  0  0  0  0
   47.7081   37.1206   24.8671 H   0  0  0  0  0  0  0  0  0  0  0  0
   47.7231   38.5370   26.2332 H   0  0  0  0  0  0  0  0  0  0  0  0
   46.4717   37.3858   27.0827 H   0  0  0  0  0  0  0  0  0  0  0  0
   49.2256   37.2445   27.8993 H   0  0  0  0  0  0  0  0  0  0  0  0
   48.2389   38.7201   28.3421 H   0  0  0  0  0  0  0  0  0  0  0  0
   47.4909   37.5502   30.0553 H   0  0  0  0  0  0  0  0  0  0  0  0
   46.5469   36.6001   28.7769 H   0  0  0  0  0  0  0  0  0  0  0  0
   47.3813   34.9834   30.0251 H   0  0  0  0  0  0  0  0  0  0  0  0
   48.6460   35.2341   28.6854 H   0  0  0  0  0  0  0  0  0  0  0  0
   50.3880   34.1570   30.1580 H   0  0  0  0  0  0  0  0  0  0  0  0
  1  2  1  0
  2  3  1  0
  3  4  1  0
  4  5  1  0
  5  6  1  0
  6  7  1  0
  7  8  1  0
  8  9  1  0
  9 10  1  0
 10 11  2  0
 10 12  1  0
  1 13  1  0
  1 14  1  0
  1 15  1  0
  2 16  1  0
  2 17  1  0
  3 18  1  0
  3 19  1  0
  4 20  1  0
  4 21  1  0
  5 22  1  0
  5 23  1  0
  6 24  1  0
  6 25  1  0
  7 26  1  0
  7 27  1  0
  8 28  1  0
  8 29  1  0
  9 30  1  0
  9 31  1  0
 12 32  1  0
M  END
>  <meeko>  (3) 
{"is_sidechain": [false], "free_energy": -4.793, "intermolecular_energy": -6.739, "internal_energy": -0.961}

$$$$
DKA_neutral_vinardo_focused_run01
     RDKit          3D

 32 31  0  0  0  0  0  0  0  0999 V2000
   50.4570   32.7150   25.4370 C   0  0  0  0  0  0  0  0  0  0  0  0
   49.0300   32.6850   25.2540 C   0  0  0  0  0  0  0  0  0  0  0  0
   48.1710   33.5690   25.9070 C   0  0  0  0  0  0  0  0  0  0  0  0
   47.0020   34.1220   25.2250 C   0  0  0  0  0  0  0  0  0  0  0  0
   46.7340   35.5360   25.5420 C   0  0  0  0  0  0  0  0  0  0  0  0
   47.7540   36.4640   25.8640 C   0  0  0  0  0  0  0  0  0  0  0  0
   47.5010   37.6760   26.6620 C   0  0  0  0  0  0  0  0  0  0  0  0
   48.2290   37.6920   28.0140 C   0  0  0  0  0  0  0  0  0  0  0  0
   47.5450   37.0240   29.1430 C   0  0  0  0  0  0  0  0  0  0  0  0
   48.0270   35.6340   29.5370 C   0  0  0  0  0  0  0  0  0  0  0  0
   49.2230   35.4760   29.8970 O   0  0  0  0  0  0  0  0  0  0  0  0
   47.2040   34.6830   29.5190 O   0  0  0  0  0  0  0  0  0  0  0  0
   50.6887   32.7199   26.5123 H   0  0  0  0  0  0  0  0  0  0  0  0
   50.9054   31.8261   24.9693 H   0  0  0  0  0  0  0  0  0  0  0  0
   50.8677   33.6220   24.9693 H   0  0  0  0  0  0  0  0  0  0  0  0
   48.8572   32.8306   24.1775 H   0  0  0  0  0  0  0  0  0  0  0  0
   48.7633   31.7256   25.7214 H   0  0  0  0  0  0  0  0  0  0  0  0
   47.7945   33.0410   26.7955 H   0  0  0  0  0  0  0  0  0  0  0  0
   48.8047   34.4550   26.0599 H   0  0  0  0  0  0  0  0  0  0  0  0
   47.1618   34.0354   24.1401 H   0  0  0  0  0  0  0  0  0  0  0  0
   46.1305   33.5480   25.5730 H   0  0  0  0  0  0  0  0  0  0  0  0
   46.2151   35.9494   24.6646 H   0  0  0  0  0  0  0  0  0  0  0  0
   46.2070   35.4482   26.5036 H   0  0  0  0  0  0  0  0  0  0  0  0
   48.5228   35.8956   26.4079 H   0  0  0  0  0  0  0  0  0  0  0  0
   47.9895   36.8899   24.8775 H   0  0  0  0  0  0  0  0  0  0  0  0
   47.8310   38.5493   26.0802 H   0  0  0  0  0  0  0  0  0  0  0  0
   46.4228   37.6971   26.8788 H   0  0  0  0  0  0  0  0  0  0  0  0
   49.2023   37.1988   27.8747 H   0  0  0  0  0  0  0  0  0  0  0  0
   48.2891   38.7529   28.2983 H   0  0  0  0  0  0  0  0  0  0  0  0
   47.6551   37.6726   30.0246 H   0  0  0  0  0  0  0  0  0  0  0  0
   46.5128   36.8731   28.7942 H   0  0  0  0  0  0  0  0  0  0  0  0
   47.0580   34.1390   30.3330 H   0  0  0  0  0  0  0  0  0  0  0  0
  1  2  1  0
  2  3  1  0
  3  4  1  0
  4  5  1  0
  5  6  1  0
  6  7  1  0
  7  8  1  0
  8  9  1  0
  9 10  1  0
 10 11  2  0
 10 12  1  0
  1 13  1  0
  1 14  1  0
  1 15  1  0
  2 16  1  0
  2 17  1  0
  3 18  1  0
  3 19  1  0
  4 20  1  0
  4 21  1  0
  5 22  1  0
  5 23  1  0
  6 24  1  0
  6 25  1  0
  7 26  1  0
  7 27  1  0
  8 28  1  0
  8 29  1  0
  9 30  1  0
  9 31  1  0
 12 32  1  0
M  END
>  <meeko>  (4) 
{"is_sidechain": [false], "free_energy": -4.74, "intermolecular_energy": -6.751, "internal_energy": -0.869}

$$$$
DKA_neutral_vinardo_focused_run01
     RDKit          3D

 32 31  0  0  0  0  0  0  0  0999 V2000
   48.2730   35.7790   29.4850 C   0  0  0  0  0  0  0  0  0  0  0  0
   47.6970   36.9990   28.9840 C   0  0  0  0  0  0  0  0  0  0  0  0
   48.1580   37.6260   27.8260 C   0  0  0  0  0  0  0  0  0  0  0  0
   47.3870   37.5750   26.5860 C   0  0  0  0  0  0  0  0  0  0  0  0
   47.6850   36.4030   25.7410 C   0  0  0  0  0  0  0  0  0  0  0  0
   46.8030   35.3030   25.6060 C   0  0  0  0  0  0  0  0  0  0  0  0
   47.2820   33.9190   25.4500 C   0  0  0  0  0  0  0  0  0  0  0  0
   48.7290   33.7060   25.9200 C   0  0  0  0  0  0  0  0  0  0  0  0
   49.4750   32.5970   25.2870 C   0  0  0  0  0  0  0  0  0  0  0  0
   50.9320   32.4060   25.6900 C   0  0  0  0  0  0  0  0  0  0  0  0
   51.2590   32.5370   26.8980 O   0  0  0  0  0  0  0  0  0  0  0  0
   51.7670   32.0960   24.8020 O   0  0  0  0  0  0  0  0  0  0  0  0
   48.2656   35.7946   30.5849 H   0  0  0  0  0  0  0  0  0  0  0  0
   47.6846   34.9215   29.1265 H   0  0  0  0  0  0  0  0  0  0  0  0
   49.3090   35.6884   29.1265 H   0  0  0  0  0  0  0  0  0  0  0  0
   46.6316   36.7857   28.8123 H   0  0  0  0  0  0  0  0  0  0  0  0
   47.9870   37.7209   29.7617 H   0  0  0  0  0  0  0  0  0  0  0  0
   48.2812   38.6905   28.0744 H   0  0  0  0  0  0  0  0  0  0  0  0
   49.0571   37.0435   27.5765 H   0  0  0  0  0  0  0  0  0  0  0  0
   46.3180   37.5522   26.8442 H   0  0  0  0  0  0  0  0  0  0  0  0
   47.6634   38.4658   26.0029 H   0  0  0  0  0  0  0  0  0  0  0  0
   47.8389   36.7941   24.7244 H   0  0  0  0  0  0  0  0  0  0  0  0
   48.5231   35.9461   26.2877 H   0  0  0  0  0  0  0  0  0  0  0  0
   46.1694   35.3074   26.5052 H   0  0  0  0  0  0  0  0  0  0  0  0
   46.3497   35.4969   24.6227 H   0  0  0  0  0  0  0  0  0  0  0  0
   46.6265   33.2573   26.0352 H   0  0  0  0  0  0  0  0  0  0  0  0
   47.2583   33.6916   24.3740 H   0  0  0  0  0  0  0  0  0  0  0  0
   49.2836   34.6356   25.7243 H   0  0  0  0  0  0  0  0  0  0  0  0
   48.6513   33.4334   26.9829 H   0  0  0  0  0  0  0  0  0  0  0  0
   48.9427   31.6643   25.5251 H   0  0  0  0  0  0  0  0  0  0  0  0
   49.5127   32.8594   24.2194 H   0  0  0  0  0  0  0  0  0  0  0  0
   51.5050   32.1150   23.8480 H   0  0  0  0  0  0  0  0  0  0  0  0
  1  2  1  0
  2  3  1  0
  3  4  1  0
  4  5  1  0
  5  6  1  0
  6  7  1  0
  7  8  1  0
  8  9  1  0
  9 10  1  0
 10 11  2  0
 10 12  1  0
  1 13  1  0
  1 14  1  0
  1 15  1  0
  2 16  1  0
  2 17  1  0
  3 18  1  0
  3 19  1  0
  4 20  1  0
  4 21  1  0
  5 22  1  0
  5 23  1  0
  6 24  1  0
  6 25  1  0
  7 26  1  0
  7 27  1  0
  8 28  1  0
  8 29  1  0
  9 30  1  0
  9 31  1  0
 12 32  1  0
M  END
>  <meeko>  (5) 
{"is_sidechain": [false], "free_energy": -4.729, "intermolecular_energy": -6.817, "internal_energy": -0.787}

$$$$
DKA_neutral_vinardo_focused_run01
     RDKit          3D

 32 31  0  0  0  0  0  0  0  0999 V2000
   46.6430   33.0190   27.9740 C   0  0  0  0  0  0  0  0  0  0  0  0
   47.1700   33.5490   26.7440 C   0  0  0  0  0  0  0  0  0  0  0  0
   46.3570   34.1030   25.7560 C   0  0  0  0  0  0  0  0  0  0  0  0
   46.6380   35.4280   25.2070 C   0  0  0  0  0  0  0  0  0  0  0  0
   47.7730   36.1170   25.8490 C   0  0  0  0  0  0  0  0  0  0  0  0
   47.6990   37.4480   26.3270 C   0  0  0  0  0  0  0  0  0  0  0  0
   48.1260   37.8260   27.6860 C   0  0  0  0  0  0  0  0  0  0  0  0
   47.5160   36.9520   28.7930 C   0  0  0  0  0  0  0  0  0  0  0  0
   48.4680   36.2240   29.6610 C   0  0  0  0  0  0  0  0  0  0  0  0
   47.9870   35.8170   31.0480 C   0  0  0  0  0  0  0  0  0  0  0  0
   48.5090   36.3510   32.0620 O   0  0  0  0  0  0  0  0  0  0  0  0
   47.0580   34.9750   31.1410 O   0  0  0  0  0  0  0  0  0  0  0  0
   47.1337   33.5125   28.8259 H   0  0  0  0  0  0  0  0  0  0  0  0
   45.5594   33.2030   28.0181 H   0  0  0  0  0  0  0  0  0  0  0  0
   46.8332   31.9365   28.0181 H   0  0  0  0  0  0  0  0  0  0  0  0
   47.8812   34.3374   27.0314 H   0  0  0  0  0  0  0  0  0  0  0  0
   47.5391   32.6395   26.2474 H   0  0  0  0  0  0  0  0  0  0  0  0
   46.3739   33.4028   24.9078 H   0  0  0  0  0  0  0  0  0  0  0  0
   45.4042   34.2564   26.2839 H   0  0  0  0  0  0  0  0  0  0  0  0
   46.8619   35.3178   24.1357 H   0  0  0  0  0  0  0  0  0  0  0  0
   45.7461   36.0444   25.3931 H   0  0  0  0  0  0  0  0  0  0  0  0
   48.0511   35.4992   26.7156 H   0  0  0  0  0  0  0  0  0  0  0  0
   48.4694   36.2258   25.0045 H   0  0  0  0  0  0  0  0  0  0  0  0
   48.3039   38.0545   25.6369 H   0  0  0  0  0  0  0  0  0  0  0  0
   46.6121   37.6089   26.3791 H   0  0  0  0  0  0  0  0  0  0  0  0
   49.2214   37.7416   27.7415 H   0  0  0  0  0  0  0  0  0  0  0  0
   47.7738   38.8537   27.8584 H   0  0  0  0  0  0  0  0  0  0  0  0
   46.9086   37.6047   29.4373 H   0  0  0  0  0  0  0  0  0  0  0  0
   46.9473   36.1713   28.2666 H   0  0  0  0  0  0  0  0  0  0  0  0
   48.7604   35.3054   29.1312 H   0  0  0  0  0  0  0  0  0  0  0  0
   49.2819   36.9405   29.8462 H   0  0  0  0  0  0  0  0  0  0  0  0
   46.6350   34.8000   32.0190 H   0  0  0  0  0  0  0  0  0  0  0  0
  1  2  1  0
  2  3  1  0
  3  4  1  0
  4  5  1  0
  5  6  1  0
  6  7  1  0
  7  8  1  0
  8  9  1  0
  9 10  1  0
 10 11  2  0
 10 12  1  0
  1 13  1  0
  1 14  1  0
  1 15  1  0
  2 16  1  0
  2 17  1  0
  3 18  1  0
  3 19  1  0
  4 20  1  0
  4 21  1  0
  5 22  1  0
  5 23  1  0
  6 24  1  0
  6 25  1  0
  7 26  1  0
  7 27  1  0
  8 28  1  0
  8 29  1  0
  9 30  1  0
  9 31  1  0
 12 32  1  0
M  END
>  <meeko>  (6) 
{"is_sidechain": [false], "free_energy": -4.685, "intermolecular_energy": -6.473, "internal_energy": -1.066}

$$$$
DKA_neutral_vinardo_focused_run01
     RDKit          3D

 32 31  0  0  0  0  0  0  0  0999 V2000
   48.0300   34.7490   29.5680 C   0  0  0  0  0  0  0  0  0  0  0  0
   48.3650   36.1460   29.6600 C   0  0  0  0  0  0  0  0  0  0  0  0
   47.6330   37.1370   29.0050 C   0  0  0  0  0  0  0  0  0  0  0  0
   48.1690   37.8110   27.8240 C   0  0  0  0  0  0  0  0  0  0  0  0
   47.4350   37.5180   26.5800 C   0  0  0  0  0  0  0  0  0  0  0  0
   47.7090   36.3910   25.7670 C   0  0  0  0  0  0  0  0  0  0  0  0
   46.7190   35.3260   25.5290 C   0  0  0  0  0  0  0  0  0  0  0  0
   47.3240   33.9150   25.4870 C   0  0  0  0  0  0  0  0  0  0  0  0
   48.7270   33.7820   25.9370 C   0  0  0  0  0  0  0  0  0  0  0  0
   49.6020   32.7570   25.2280 C   0  0  0  0  0  0  0  0  0  0  0  0
   50.8540   32.8730   25.2810 O   0  0  0  0  0  0  0  0  0  0  0  0
   49.0450   31.8010   24.6290 O   0  0  0  0  0  0  0  0  0  0  0  0
   47.9292   34.3287   30.5795 H   0  0  0  0  0  0  0  0  0  0  0  0
   47.0790   34.6348   29.0271 H   0  0  0  0  0  0  0  0  0  0  0  0
   48.8258   34.2160   29.0271 H   0  0  0  0  0  0  0  0  0  0  0  0
   48.3315   36.3984   30.7301 H   0  0  0  0  0  0  0  0  0  0  0  0
   49.3251   36.1835   29.1244 H   0  0  0  0  0  0  0  0  0  0  0  0
   46.6843   36.6733   28.6970 H   0  0  0  0  0  0  0  0  0  0  0  0
   47.5983   37.9452   29.7504 H   0  0  0  0  0  0  0  0  0  0  0  0
   48.1327   38.8963   27.9992 H   0  0  0  0  0  0  0  0  0  0  0  0
   49.1942   37.4379   27.6833 H   0  0  0  0  0  0  0  0  0  0  0  0
   46.3762   37.4343   26.8661 H   0  0  0  0  0  0  0  0  0  0  0  0
   47.7669   38.3418   25.9310 H   0  0  0  0  0  0  0  0  0  0  0  0
   47.9756   36.7870   24.7760 H   0  0  0  0  0  0  0  0  0  0  0  0
   48.4685   35.8632   26.3625 H   0  0  0  0  0  0  0  0  0  0  0  0
   45.9728   35.3594   26.3365 H   0  0  0  0  0  0  0  0  0  0  0  0
   46.2774   35.5147   24.5394 H   0  0  0  0  0  0  0  0  0  0  0  0
   46.7057   33.2677   26.1263 H   0  0  0  0  0  0  0  0  0  0  0  0
   47.3329   33.6349   24.4233 H   0  0  0  0  0  0  0  0  0  0  0  0
   49.2062   34.7645   25.8143 H   0  0  0  0  0  0  0  0  0  0  0  0
   48.6543   33.4178   26.9724 H   0  0  0  0  0  0  0  0  0  0  0  0
   48.6850   31.0360   25.1440 H   0  0  0  0  0  0  0  0  0  0  0  0
  1  2  1  0
  2  3  1  0
  3  4  1  0
  4  5  1  0
  5  6  1  0
  6  7  1  0
  7  8  1  0
  8  9  1  0
  9 10  1  0
 10 11  2  0
 10 12  1  0
  1 13  1  0
  1 14  1  0
  1 15  1  0
  2 16  1  0
  2 17  1  0
  3 18  1  0
  3 19  1  0
  4 20  1  0
  4 21  1  0
  5 22  1  0
  5 23  1  0
  6 24  1  0
  6 25  1  0
  7 26  1  0
  7 27  1  0
  8 28  1  0
  8 29  1  0
  9 30  1  0
  9 31  1  0
 12 32  1  0
M  END
>  <meeko>  (7) 
{"is_sidechain": [false], "free_energy": -4.655, "intermolecular_energy": -6.46, "internal_energy": -1.034}

$$$$
DKA_neutral_vinardo_focused_run01
     RDKit          3D

 32 31  0  0  0  0  0  0  0  0999 V2000
   46.9140   35.5840   25.5860 C   0  0  0  0  0  0  0  0  0  0  0  0
   47.8510   36.5460   26.1040 C   0  0  0  0  0  0  0  0  0  0  0  0
   47.5060   37.4740   27.0880 C   0  0  0  0  0  0  0  0  0  0  0  0
   48.0730   37.3890   28.4320 C   0  0  0  0  0  0  0  0  0  0  0  0
   47.7390   36.1440   29.1480 C   0  0  0  0  0  0  0  0  0  0  0  0
   48.1630   35.8760   30.4730 C   0  0  0  0  0  0  0  0  0  0  0  0
   47.3440   36.2110   31.6510 C   0  0  0  0  0  0  0  0  0  0  0  0
   47.5930   35.2970   32.8590 C   0  0  0  0  0  0  0  0  0  0  0  0
   46.6640   34.1580   33.0310 C   0  0  0  0  0  0  0  0  0  0  0  0
   45.3270   34.4340   33.7050 C   0  0  0  0  0  0  0  0  0  0  0  0
   44.3080   34.6350   32.9940 O   0  0  0  0  0  0  0  0  0  0  0  0
   45.2720   34.4260   34.9620 O   0  0  0  0  0  0  0  0  0  0  0  0
   46.4149   35.0716   26.4216 H   0  0  0  0  0  0  0  0  0  0  0  0
   46.1621   36.0993   24.9702 H   0  0  0  0  0  0  0  0  0  0  0  0
   47.4489   34.8459   24.9702 H   0  0  0  0  0  0  0  0  0  0  0  0
   48.6908   35.9650   26.5130 H   0  0  0  0  0  0  0  0  0  0  0  0
   48.0152   37.1940   25.2304 H   0  0  0  0  0  0  0  0  0  0  0  0
   47.7800   38.4640   26.6946 H   0  0  0  0  0  0  0  0  0  0  0  0
   46.4407   37.2607   27.2600 H   0  0  0  0  0  0  0  0  0  0  0  0
   49.1678   37.4575   28.3502 H   0  0  0  0  0  0  0  0  0  0  0  0
   47.6382   38.2157   29.0129 H   0  0  0  0  0  0  0  0  0  0  0  0
   46.6404   36.0902   29.1651 H   0  0  0  0  0  0  0  0  0  0  0  0
   48.3178   35.4019   28.5786 H   0  0  0  0  0  0  0  0  0  0  0  0
   48.3404   34.7916   30.5231 H   0  0  0  0  0  0  0  0  0  0  0  0
   49.0091   36.5702   30.5829 H   0  0  0  0  0  0  0  0  0  0  0  0
   47.5694   37.2462   31.9471 H   0  0  0  0  0  0  0  0  0  0  0  0
   46.2922   36.0762   31.3587 H   0  0  0  0  0  0  0  0  0  0  0  0
   48.6093   34.8872   32.7635 H   0  0  0  0  0  0  0  0  0  0  0  0
   47.4369   35.9343   33.7418 H   0  0  0  0  0  0  0  0  0  0  0  0
   46.4508   33.7533   32.0306 H   0  0  0  0  0  0  0  0  0  0  0  0
   47.1857   33.4732   33.7157 H   0  0  0  0  0  0  0  0  0  0  0  0
   44.6580   33.8030   35.4260 H   0  0  0  0  0  0  0  0  0  0  0  0
  1  2  1  0
  2  3  1  0
  3  4  1  0
  4  5  1  0
  5  6  1  0
  6  7  1  0
  7  8  1  0
  8  9  1  0
  9 10  1  0
 10 11  2  0
 10 12  1  0
  1 13  1  0
  1 14  1  0
  1 15  1  0
  2 16  1  0
  2 17  1  0
  3 18  1  0
  3 19  1  0
  4 20  1  0
  4 21  1  0
  5 22  1  0
  5 23  1  0
  6 24  1  0
  6 25  1  0
  7 26  1  0
  7 27  1  0
  8 28  1  0
  8 29  1  0
  9 30  1  0
  9 31  1  0
 12 32  1  0
M  END
>  <meeko>  (8) 
{"is_sidechain": [false], "free_energy": -4.581, "intermolecular_energy": -7.018, "internal_energy": -0.365}

$$$$
DKA_neutral_vinardo_focused_run01
     RDKit          3D

 32 31  0  0  0  0  0  0  0  0999 V2000
   47.9310   35.5150   30.9520 C   0  0  0  0  0  0  0  0  0  0  0  0
   48.4360   36.2070   29.7960 C   0  0  0  0  0  0  0  0  0  0  0  0
   47.6210   36.9760   28.9650 C   0  0  0  0  0  0  0  0  0  0  0  0
   48.1940   37.8020   27.9050 C   0  0  0  0  0  0  0  0  0  0  0  0
   47.5530   37.6240   26.5900 C   0  0  0  0  0  0  0  0  0  0  0  0
   47.7950   36.5040   25.7570 C   0  0  0  0  0  0  0  0  0  0  0  0
   46.7550   35.5070   25.4480 C   0  0  0  0  0  0  0  0  0  0  0  0
   47.2350   34.0530   25.5720 C   0  0  0  0  0  0  0  0  0  0  0  0
   46.4850   33.1850   26.5060 C   0  0  0  0  0  0  0  0  0  0  0  0
   46.9580   33.1320   27.9530 C   0  0  0  0  0  0  0  0  0  0  0  0
   46.1060   33.1260   28.8800 O   0  0  0  0  0  0  0  0  0  0  0  0
   48.1930   33.0690   28.1820 O   0  0  0  0  0  0  0  0  0  0  0  0
   48.2935   36.0117   31.8641 H   0  0  0  0  0  0  0  0  0  0  0  0
   46.8312   35.5316   30.9379 H   0  0  0  0  0  0  0  0  0  0  0  0
   48.2822   34.4727   30.9379 H   0  0  0  0  0  0  0  0  0  0  0  0
   49.2210   36.8838   30.1644 H   0  0  0  0  0  0  0  0  0  0  0  0
   48.7062   35.3709   29.1342 H   0  0  0  0  0  0  0  0  0  0  0  0
   46.9253   36.2780   28.4762 H   0  0  0  0  0  0  0  0  0  0  0  0
   47.2064   37.7237   29.6571 H   0  0  0  0  0  0  0  0  0  0  0  0
   48.0943   38.8576   28.1977 H   0  0  0  0  0  0  0  0  0  0  0  0
   49.2426   37.4896   27.7914 H   0  0  0  0  0  0  0  0  0  0  0  0
   46.4692   37.6328   26.7780 H   0  0  0  0  0  0  0  0  0  0  0  0
   48.0174   38.4340   26.0084 H   0  0  0  0  0  0  0  0  0  0  0  0
   48.1268   36.9090   24.7896 H   0  0  0  0  0  0  0  0  0  0  0  0
   48.4960   35.9163   26.3679 H   0  0  0  0  0  0  0  0  0  0  0  0
   45.9148   35.6554   26.1423 H   0  0  0  0  0  0  0  0  0  0  0  0
   46.4651   35.6607   24.3981 H   0  0  0  0  0  0  0  0  0  0  0  0
   47.1775   33.5963   24.5729 H   0  0  0  0  0  0  0  0  0  0  0  0
   48.2510   34.1176   25.9887 H   0  0  0  0  0  0  0  0  0  0  0  0
   45.4417   33.5334   26.5133 H   0  0  0  0  0  0  0  0  0  0  0  0
   46.6388   32.1649   26.1242 H   0  0  0  0  0  0  0  0  0  0  0  0
   48.5300   33.1540   29.1090 H   0  0  0  0  0  0  0  0  0  0  0  0
  1  2  1  0
  2  3  1  0
  3  4  1  0
  4  5  1  0
  5  6  1  0
  6  7  1  0
  7  8  1  0
  8  9  1  0
  9 10  1  0
 10 11  2  0
 10 12  1  0
  1 13  1  0
  1 14  1  0
  1 15  1  0
  2 16  1  0
  2 17  1  0
  3 18  1  0
  3 19  1  0
  4 20  1  0
  4 21  1  0
  5 22  1  0
  5 23  1  0
  6 24  1  0
  6 25  1  0
  7 26  1  0
  7 27  1  0
  8 28  1  0
  8 29  1  0
  9 30  1  0
  9 31  1  0
 12 32  1  0
M  END
>  <meeko>  (9) 
{"is_sidechain": [false], "free_energy": -4.556, "intermolecular_energy": -6.198, "internal_energy": -1.148}

$$$$
DKA_neutral_vinardo_focused_run01
     RDKit          3D

 32 31  0  0  0  0  0  0  0  0999 V2000
   48.5150   36.0720   29.8050 C   0  0  0  0  0  0  0  0  0  0  0  0
   47.6630   36.8810   28.9750 C   0  0  0  0  0  0  0  0  0  0  0  0
   48.1640   37.7380   27.9950 C   0  0  0  0  0  0  0  0  0  0  0  0
   47.6320   37.7150   26.6340 C   0  0  0  0  0  0  0  0  0  0  0  0
   47.8670   36.4480   25.9170 C   0  0  0  0  0  0  0  0  0  0  0  0
   46.8190   35.6220   25.4420 C   0  0  0  0  0  0  0  0  0  0  0  0
   46.7840   34.1690   25.6840 C   0  0  0  0  0  0  0  0  0  0  0  0
   48.1070   33.5970   26.2130 C   0  0  0  0  0  0  0  0  0  0  0  0
   48.0150   32.6740   27.3660 C   0  0  0  0  0  0  0  0  0  0  0  0
   46.6870   32.6030   28.1090 C   0  0  0  0  0  0  0  0  0  0  0  0
   45.8800   31.6740   27.8430 O   0  0  0  0  0  0  0  0  0  0  0  0
   46.4440   33.4650   28.9920 O   0  0  0  0  0  0  0  0  0  0  0  0
   48.2982   36.2778   30.8636 H   0  0  0  0  0  0  0  0  0  0  0  0
   48.3307   35.0085   29.5930 H   0  0  0  0  0  0  0  0  0  0  0  0
   49.5676   36.3111   29.5930 H   0  0  0  0  0  0  0  0  0  0  0  0
   46.9910   36.1824   28.4550 H   0  0  0  0  0  0  0  0  0  0  0  0
   47.2478   37.5919   29.7045 H   0  0  0  0  0  0  0  0  0  0  0  0
   48.0192   38.7617   28.3705 H   0  0  0  0  0  0  0  0  0  0  0  0
   49.1938   37.3759   27.8593 H   0  0  0  0  0  0  0  0  0  0  0  0
   46.5467   37.8873   26.6844 H   0  0  0  0  0  0  0  0  0  0  0  0
   48.1612   38.4996   26.0733 H   0  0  0  0  0  0  0  0  0  0  0  0
   48.4714   36.7070   25.0352 H   0  0  0  0  0  0  0  0  0  0  0  0
   48.2952   35.8219   26.7136 H   0  0  0  0  0  0  0  0  0  0  0  0
   45.8918   36.0260   25.8745 H   0  0  0  0  0  0  0  0  0  0  0  0
   46.9735   35.6655   24.3538 H   0  0  0  0  0  0  0  0  0  0  0  0
   45.9957   33.9592   26.4220 H   0  0  0  0  0  0  0  0  0  0  0  0
   46.5916   33.6871   24.7140 H   0  0  0  0  0  0  0  0  0  0  0  0
   48.5893   33.0530   25.3875 H   0  0  0  0  0  0  0  0  0  0  0  0
   48.6725   34.4658   26.5810 H   0  0  0  0  0  0  0  0  0  0  0  0
   48.2397   31.6626   26.9965 H   0  0  0  0  0  0  0  0  0  0  0  0
   48.7259   33.0761   28.1028 H   0  0  0  0  0  0  0  0  0  0  0  0
   47.0330   33.5410   29.7850 H   0  0  0  0  0  0  0  0  0  0  0  0
  1  2  1  0
  2  3  1  0
  3  4  1  0
  4  5  1  0
  5  6  1  0
  6  7  1  0
  7  8  1  0
  8  9  1  0
  9 10  1  0
 10 11  2  0
 10 12  1  0
  1 13  1  0
  1 14  1  0
  1 15  1  0
  2 16  1  0
  2 17  1  0
  3 18  1  0
  3 19  1  0
  4 20  1  0
  4 21  1  0
  5 22  1  0
  5 23  1  0
  6 24  1  0
  6 25  1  0
  7 26  1  0
  7 27  1  0
  8 28  1  0
  8 29  1  0
  9 30  1  0
  9 31  1  0
 12 32  1  0
M  END
>  <meeko>  (10) 
{"is_sidechain": [false], "free_energy": -4.515, "intermolecular_energy": -6.112, "internal_energy": -1.173}

$$$$
DKA_neutral_vinardo_focused_run01
     RDKit          3D

 32 31  0  0  0  0  0  0  0  0999 V2000
   48.3970   33.5980   25.6100 C   0  0  0  0  0  0  0  0  0  0  0  0
   47.0680   34.1490   25.5610 C   0  0  0  0  0  0  0  0  0  0  0  0
   46.8230   35.5220   25.5950 C   0  0  0  0  0  0  0  0  0  0  0  0
   47.9150   36.4760   25.7760 C   0  0  0  0  0  0  0  0  0  0  0  0
   47.6100   37.5660   26.7210 C   0  0  0  0  0  0  0  0  0  0  0  0
   48.2100   37.6720   27.9990 C   0  0  0  0  0  0  0  0  0  0  0  0
   47.5840   37.1250   29.2160 C   0  0  0  0  0  0  0  0  0  0  0  0
   48.3920   35.9990   29.8770 C   0  0  0  0  0  0  0  0  0  0  0  0
   48.1750   34.6320   29.3520 C   0  0  0  0  0  0  0  0  0  0  0  0
   49.2270   33.5780   29.6740 C   0  0  0  0  0  0  0  0  0  0  0  0
   50.0380   33.2230   28.7790 O   0  0  0  0  0  0  0  0  0  0  0  0
   49.2730   33.1090   30.8400 O   0  0  0  0  0  0  0  0  0  0  0  0
   48.7029   33.4712   26.6590 H   0  0  0  0  0  0  0  0  0  0  0  0
   48.4078   32.6212   25.1042 H   0  0  0  0  0  0  0  0  0  0  0  0
   49.0958   34.2806   25.1042 H   0  0  0  0  0  0  0  0  0  0  0  0
   46.6197   33.7820   24.6259 H   0  0  0  0  0  0  0  0  0  0  0  0
   46.6534   33.8225   26.5262 H   0  0  0  0  0  0  0  0  0  0  0  0
   46.3393   35.7773   24.6406 H   0  0  0  0  0  0  0  0  0  0  0  0
   46.2408   35.6415   26.5206 H   0  0  0  0  0  0  0  0  0  0  0  0
   48.7931   35.9294   26.1505 H   0  0  0  0  0  0  0  0  0  0  0  0
   48.0930   36.9448   24.7969 H   0  0  0  0  0  0  0  0  0  0  0  0
   47.8536   38.5003   26.1940 H   0  0  0  0  0  0  0  0  0  0  0  0
   46.5670   37.3395   26.9870 H   0  0  0  0  0  0  0  0  0  0  0  0
   49.1930   37.1854   27.9161 H   0  0  0  0  0  0  0  0  0  0  0  0
   48.1550   38.7548   28.1846 H   0  0  0  0  0  0  0  0  0  0  0  0
   47.4685   37.9419   29.9435 H   0  0  0  0  0  0  0  0  0  0  0  0
   46.6197   36.6913   28.9126 H   0  0  0  0  0  0  0  0  0  0  0  0
   49.4588   36.2379   29.7553 H   0  0  0  0  0  0  0  0  0  0  0  0
   48.0459   35.9675   30.9207 H   0  0  0  0  0  0  0  0  0  0  0  0
   47.2159   34.2734   29.7540 H   0  0  0  0  0  0  0  0  0  0  0  0
   48.2159   34.7428   28.2584 H   0  0  0  0  0  0  0  0  0  0  0  0
   50.0470   33.3100   31.4230 H   0  0  0  0  0  0  0  0  0  0  0  0
  1  2  1  0
  2  3  1  0
  3  4  1  0
  4  5  1  0
  5  6  1  0
  6  7  1  0
  7  8  1  0
  8  9  1  0
  9 10  1  0
 10 11  2  0
 10 12  1  0
  1 13  1  0
  1 14  1  0
  1 15  1  0
  2 16  1  0
  2 17  1  0
  3 18  1  0
  3 19  1  0
  4 20  1  0
  4 21  1  0
  5 22  1  0
  5 23  1  0
  6 24  1  0
  6 25  1  0
  7 26  1  0
  7 27  1  0
  8 28  1  0
  8 29  1  0
  9 30  1  0
  9 31  1  0
 12 32  1  0
M  END
>  <meeko>  (11) 
{"is_sidechain": [false], "free_energy": -4.384, "intermolecular_energy": -5.973, "internal_energy": -1.115}

$$$$
DKA_neutral_vinardo_focused_run01
     RDKit          3D

 32 31  0  0  0  0  0  0  0  0999 V2000
   50.2020   32.8050   25.4050 C   0  0  0  0  0  0  0  0  0  0  0  0
   49.0820   31.9370   25.1560 C   0  0  0  0  0  0  0  0  0  0  0  0
   47.8880   32.0280   25.8720 C   0  0  0  0  0  0  0  0  0  0  0  0
   46.8110   32.9110   25.4300 C   0  0  0  0  0  0  0  0  0  0  0  0
   46.7540   34.1980   26.1490 C   0  0  0  0  0  0  0  0  0  0  0  0
   46.8540   35.4520   25.4980 C   0  0  0  0  0  0  0  0  0  0  0  0
   47.9130   36.4260   25.8130 C   0  0  0  0  0  0  0  0  0  0  0  0
   47.4570   37.5580   26.7460 C   0  0  0  0  0  0  0  0  0  0  0  0
   48.2030   37.7140   28.0140 C   0  0  0  0  0  0  0  0  0  0  0  0
   47.7650   36.8640   29.1990 C   0  0  0  0  0  0  0  0  0  0  0  0
   47.9510   35.6190   29.1670 O   0  0  0  0  0  0  0  0  0  0  0  0
   47.2510   37.4360   30.1940 O   0  0  0  0  0  0  0  0  0  0  0  0
   50.3456   32.9163   26.4899 H   0  0  0  0  0  0  0  0  0  0  0  0
   51.1086   32.3713   24.9577 H   0  0  0  0  0  0  0  0  0  0  0  0
   50.0082   33.7911   24.9577 H   0  0  0  0  0  0  0  0  0  0  0  0
   48.8152   32.0788   24.0983 H   0  0  0  0  0  0  0  0  0  0  0  0
   49.4720   30.9647   25.4916 H   0  0  0  0  0  0  0  0  0  0  0  0
   47.4658   31.0128   25.9065 H   0  0  0  0  0  0  0  0  0  0  0  0
   48.2075   32.4906   26.8175 H   0  0  0  0  0  0  0  0  0  0  0  0
   46.9527   33.1194   24.3593 H   0  0  0  0  0  0  0  0  0  0  0  0
   45.8661   32.3884   25.6397 H   0  0  0  0  0  0  0  0  0  0  0  0
   45.7892   34.2072   26.6772 H   0  0  0  0  0  0  0  0  0  0  0  0
   47.6937   34.1719   26.7202 H   0  0  0  0  0  0  0  0  0  0  0  0
   46.9512   35.2318   24.4246 H   0  0  0  0  0  0  0  0  0  0  0  0
   45.9558   35.9691   25.8665 H   0  0  0  0  0  0  0  0  0  0  0  0
   48.7434   35.8910   26.2970 H   0  0  0  0  0  0  0  0  0  0  0  0
   48.2104   36.8941   24.8631 H   0  0  0  0  0  0  0  0  0  0  0  0
   47.5429   38.5033   26.1901 H   0  0  0  0  0  0  0  0  0  0  0  0
   46.4320   37.2923   27.0440 H   0  0  0  0  0  0  0  0  0  0  0  0
   49.2563   37.4732   27.8078 H   0  0  0  0  0  0  0  0  0  0  0  0
   48.0084   38.7505   28.3268 H   0  0  0  0  0  0  0  0  0  0  0  0
   46.4540   37.0460   30.6330 H   0  0  0  0  0  0  0  0  0  0  0  0
  1  2  1  0
  2  3  1  0
  3  4  1  0
  4  5  1  0
  5  6  1  0
  6  7  1  0
  7  8  1  0
  8  9  1  0
  9 10  1  0
 10 11  2  0
 10 12  1  0
  1 13  1  0
  1 14  1  0
  1 15  1  0
  2 16  1  0
  2 17  1  0
  3 18  1  0
  3 19  1  0
  4 20  1  0
  4 21  1  0
  5 22  1  0
  5 23  1  0
  6 24  1  0
  6 25  1  0
  7 26  1  0
  7 27  1  0
  8 28  1  0
  8 29  1  0
  9 30  1  0
  9 31  1  0
 12 32  1  0
M  END
>  <meeko>  (12) 
{"is_sidechain": [false], "free_energy": -4.367, "intermolecular_energy": -6.303, "internal_energy": -0.761}

$$$$
DKA_neutral_vinardo_focused_run01
     RDKit          3D

 32 31  0  0  0  0  0  0  0  0999 V2000
   48.0560   37.6200   28.0470 C   0  0  0  0  0  0  0  0  0  0  0  0
   47.4810   37.3490   26.7560 C   0  0  0  0  0  0  0  0  0  0  0  0
   47.7670   36.1890   26.0350 C   0  0  0  0  0  0  0  0  0  0  0  0
   46.7260   35.4970   25.2790 C   0  0  0  0  0  0  0  0  0  0  0  0
   46.6080   34.0610   25.5930 C   0  0  0  0  0  0  0  0  0  0  0  0
   47.6810   33.2910   26.1020 C   0  0  0  0  0  0  0  0  0  0  0  0
   48.6220   32.5680   25.2290 C   0  0  0  0  0  0  0  0  0  0  0  0
   50.0960   32.9210   25.4790 C   0  0  0  0  0  0  0  0  0  0  0  0
   51.0980   31.9140   25.0650 C   0  0  0  0  0  0  0  0  0  0  0  0
   52.5480   32.1560   25.4640 C   0  0  0  0  0  0  0  0  0  0  0  0
   53.4680   31.8410   24.6660 O   0  0  0  0  0  0  0  0  0  0  0  0
   52.7850   32.6920   26.5770 O   0  0  0  0  0  0  0  0  0  0  0  0
   47.3609   37.2924   28.8341 H   0  0  0  0  0  0  0  0  0  0  0  0
   49.0062   37.0749   28.1469 H   0  0  0  0  0  0  0  0  0  0  0  0
   48.2404   38.6998   28.1469 H   0  0  0  0  0  0  0  0  0  0  0  0
   46.3905   37.3579   26.8997 H   0  0  0  0  0  0  0  0  0  0  0  0
   47.9527   38.1231   26.1328 H   0  0  0  0  0  0  0  0  0  0  0  0
   48.5531   36.4553   25.3131 H   0  0  0  0  0  0  0  0  0  0  0  0
   48.0117   35.4661   26.8271 H   0  0  0  0  0  0  0  0  0  0  0  0
   45.7618   35.9789   25.4980 H   0  0  0  0  0  0  0  0  0  0  0  0
   47.0047   35.5678   24.2173 H   0  0  0  0  0  0  0  0  0  0  0  0
   45.7984   33.9785   26.3331 H   0  0  0  0  0  0  0  0  0  0  0  0
   46.4830   33.6268   24.5901 H   0  0  0  0  0  0  0  0  0  0  0  0
   48.2914   33.9793   26.7050 H   0  0  0  0  0  0  0  0  0  0  0  0
   47.1499   32.4632   26.5946 H   0  0  0  0  0  0  0  0  0  0  0  0
   48.4907   31.4887   25.3961 H   0  0  0  0  0  0  0  0  0  0  0  0
   48.3924   32.8650   24.1950 H   0  0  0  0  0  0  0  0  0  0  0  0
   50.3133   33.8516   24.9342 H   0  0  0  0  0  0  0  0  0  0  0  0
   50.1948   32.9960   26.5720 H   0  0  0  0  0  0  0  0  0  0  0  0
   50.7940   30.9498   25.4985 H   0  0  0  0  0  0  0  0  0  0  0  0
   51.0999   31.9576   23.9659 H   0  0  0  0  0  0  0  0  0  0  0  0
   52.4000   33.5790   26.7910 H   0  0  0  0  0  0  0  0  0  0  0  0
  1  2  1  0
  2  3  1  0
  3  4  1  0
  4  5  1  0
  5  6  1  0
  6  7  1  0
  7  8  1  0
  8  9  1  0
  9 10  1  0
 10 11  2  0
 10 12  1  0
  1 13  1  0
  1 14  1  0
  1 15  1  0
  2 16  1  0
  2 17  1  0
  3 18  1  0
  3 19  1  0
  4 20  1  0
  4 21  1  0
  5 22  1  0
  5 23  1  0
  6 24  1  0
  6 25  1  0
  7 26  1  0
  7 27  1  0
  8 28  1  0
  8 29  1  0
  9 30  1  0
  9 31  1  0
 12 32  1  0
M  END
>  <meeko>  (13) 
{"is_sidechain": [false], "free_energy": -4.257, "intermolecular_energy": -6.371, "internal_energy": -0.527}

$$$$
DKA_neutral_vinardo_focused_run01
     RDKit          3D

 32 31  0  0  0  0  0  0  0  0999 V2000
   48.4740   36.1130   29.6990 C   0  0  0  0  0  0  0  0  0  0  0  0
   47.6510   36.9740   28.8920 C   0  0  0  0  0  0  0  0  0  0  0  0
   48.1780   37.8060   27.9030 C   0  0  0  0  0  0  0  0  0  0  0  0
   47.7070   37.7240   26.5230 C   0  0  0  0  0  0  0  0  0  0  0  0
   47.8290   36.3820   25.9240 C   0  0  0  0  0  0  0  0  0  0  0  0
   46.7140   35.6240   25.4910 C   0  0  0  0  0  0  0  0  0  0  0  0
   46.7920   34.1760   25.2310 C   0  0  0  0  0  0  0  0  0  0  0  0
   48.1640   33.5630   25.5480 C   0  0  0  0  0  0  0  0  0  0  0  0
   48.2200   32.0880   25.6620 C   0  0  0  0  0  0  0  0  0  0  0  0
   46.9250   31.3570   25.9910 C   0  0  0  0  0  0  0  0  0  0  0  0
   46.3070   30.7550   25.0740 O   0  0  0  0  0  0  0  0  0  0  0  0
   46.5220   31.3510   27.1820 O   0  0  0  0  0  0  0  0  0  0  0  0
   48.2818   36.3141   30.7632 H   0  0  0  0  0  0  0  0  0  0  0  0
   48.2355   35.0627   29.4754 H   0  0  0  0  0  0  0  0  0  0  0  0
   49.5340   36.3039   29.4754 H   0  0  0  0  0  0  0  0  0  0  0  0
   46.9279   36.3179   28.3854 H   0  0  0  0  0  0  0  0  0  0  0  0
   47.2947   37.7041   29.6336 H   0  0  0  0  0  0  0  0  0  0  0  0
   47.9976   38.8393   28.2344 H   0  0  0  0  0  0  0  0  0  0  0  0
   49.2193   37.4601   27.8247 H   0  0  0  0  0  0  0  0  0  0  0  0
   46.6469   38.0167   26.5018 H   0  0  0  0  0  0  0  0  0  0  0  0
   48.3450   38.3955   25.9296 H   0  0  0  0  0  0  0  0  0  0  0  0
   48.4743   36.5022   25.0413 H   0  0  0  0  0  0  0  0  0  0  0  0
   48.1760   35.7895   26.7834 H   0  0  0  0  0  0  0  0  0  0  0  0
   45.9389   35.7545   26.2606 H   0  0  0  0  0  0  0  0  0  0  0  0
   46.5485   36.0252   24.4802 H   0  0  0  0  0  0  0  0  0  0  0  0
   46.0352   33.6712   25.8495 H   0  0  0  0  0  0  0  0  0  0  0  0
   46.6183   34.0338   24.1542 H   0  0  0  0  0  0  0  0  0  0  0  0
   48.8565   33.8625   24.7475 H   0  0  0  0  0  0  0  0  0  0  0  0
   48.4273   33.9416   26.5467 H   0  0  0  0  0  0  0  0  0  0  0  0
   48.5835   31.6971   24.7002 H   0  0  0  0  0  0  0  0  0  0  0  0
   48.8748   31.8990   26.5254 H   0  0  0  0  0  0  0  0  0  0  0  0
   46.1490   30.5220   27.5740 H   0  0  0  0  0  0  0  0  0  0  0  0
  1  2  1  0
  2  3  1  0
  3  4  1  0
  4  5  1  0
  5  6  1  0
  6  7  1  0
  7  8  1  0
  8  9  1  0
  9 10  1  0
 10 11  2  0
 10 12  1  0
  1 13  1  0
  1 14  1  0
  1 15  1  0
  2 16  1  0
  2 17  1  0
  3 18  1  0
  3 19  1  0
  4 20  1  0
  4 21  1  0
  5 22  1  0
  5 23  1  0
  6 24  1  0
  6 25  1  0
  7 26  1  0
  7 27  1  0
  8 28  1  0
  8 29  1  0
  9 30  1  0
  9 31  1  0
 12 32  1  0
M  END
>  <meeko>  (14) 
{"is_sidechain": [false], "free_energy": -4.249, "intermolecular_energy": -6.223, "internal_energy": -0.663}

$$$$
DKA_neutral_vinardo_focused_run01
     RDKit          3D

 32 31  0  0  0  0  0  0  0  0999 V2000
   50.2350   32.1640   25.0450 C   0  0  0  0  0  0  0  0  0  0  0  0
   49.4350   32.9990   25.9010 C   0  0  0  0  0  0  0  0  0  0  0  0
   48.2640   33.6200   25.4640 C   0  0  0  0  0  0  0  0  0  0  0  0
   47.1330   33.8130   26.3690 C   0  0  0  0  0  0  0  0  0  0  0  0
   47.3980   33.4010   27.7600 C   0  0  0  0  0  0  0  0  0  0  0  0
   47.4910   34.3200   28.8340 C   0  0  0  0  0  0  0  0  0  0  0  0
   48.3970   35.4810   28.8080 C   0  0  0  0  0  0  0  0  0  0  0  0
   47.6700   36.8340   28.7920 C   0  0  0  0  0  0  0  0  0  0  0  0
   48.2200   37.8720   27.8910 C   0  0  0  0  0  0  0  0  0  0  0  0
   47.8170   37.8170   26.4230 C   0  0  0  0  0  0  0  0  0  0  0  0
   46.7950   37.1630   26.0890 O   0  0  0  0  0  0  0  0  0  0  0  0
   48.5060   38.4530   25.5850 O   0  0  0  0  0  0  0  0  0  0  0  0
   50.8658   31.5057   25.6604 H   0  0  0  0  0  0  0  0  0  0  0  0
   49.5769   31.5526   24.4101 H   0  0  0  0  0  0  0  0  0  0  0  0
   50.8740   32.7953   24.4101 H   0  0  0  0  0  0  0  0  0  0  0  0
   49.1462   32.3709   26.7566 H   0  0  0  0  0  0  0  0  0  0  0  0
   50.1003   33.8605   26.0599 H   0  0  0  0  0  0  0  0  0  0  0  0
   48.5540   34.6195   25.1078 H   0  0  0  0  0  0  0  0  0  0  0  0
   47.8680   32.9021   24.7307 H   0  0  0  0  0  0  0  0  0  0  0  0
   46.8691   34.8809   26.3693 H   0  0  0  0  0  0  0  0  0  0  0  0
   46.3177   33.1741   25.9987 H   0  0  0  0  0  0  0  0  0  0  0  0
   46.5911   32.7030   28.0279 H   0  0  0  0  0  0  0  0  0  0  0  0
   48.4352   33.0417   27.6884 H   0  0  0  0  0  0  0  0  0  0  0  0
   46.4787   34.7261   28.9766 H   0  0  0  0  0  0  0  0  0  0  0  0
   47.9432   33.6997   29.6219 H   0  0  0  0  0  0  0  0  0  0  0  0
   49.0370   35.4417   29.7018 H   0  0  0  0  0  0  0  0  0  0  0  0
   48.9743   35.4162   27.8739 H   0  0  0  0  0  0  0  0  0  0  0  0
   46.6281   36.6494   28.4914 H   0  0  0  0  0  0  0  0  0  0  0  0
   47.7893   37.2391   29.8077 H   0  0  0  0  0  0  0  0  0  0  0  0
   47.9029   38.8497   28.2829 H   0  0  0  0  0  0  0  0  0  0  0  0
   49.3055   37.6941   27.8896 H   0  0  0  0  0  0  0  0  0  0  0  0
   48.0630   39.0450   24.9280 H   0  0  0  0  0  0  0  0  0  0  0  0
  1  2  1  0
  2  3  1  0
  3  4  1  0
  4  5  1  0
  5  6  1  0
  6  7  1  0
  7  8  1  0
  8  9  1  0
  9 10  1  0
 10 11  2  0
 10 12  1  0
  1 13  1  0
  1 14  1  0
  1 15  1  0
  2 16  1  0
  2 17  1  0
  3 18  1  0
  3 19  1  0
  4 20  1  0
  4 21  1  0
  5 22  1  0
  5 23  1  0
  6 24  1  0
  6 25  1  0
  7 26  1  0
  7 27  1  0
  8 28  1  0
  8 29  1  0
  9 30  1  0
  9 31  1  0
 12 32  1  0
M  END
>  <meeko>  (15) 
{"is_sidechain": [false], "free_energy": -4.175, "intermolecular_energy": -5.846, "internal_energy": -0.929}

$$$$
DKA_neutral_vinardo_focused_run01
     RDKit          3D

 32 31  0  0  0  0  0  0  0  0999 V2000
   53.0950   36.1980   31.6320 C   0  0  0  0  0  0  0  0  0  0  0  0
   52.1350   36.1620   32.7040 C   0  0  0  0  0  0  0  0  0  0  0  0
   50.7620   36.0650   32.4790 C   0  0  0  0  0  0  0  0  0  0  0  0
   50.2390   35.3220   31.3340 C   0  0  0  0  0  0  0  0  0  0  0  0
   48.8720   35.7080   30.9400 C   0  0  0  0  0  0  0  0  0  0  0  0
   48.4700   35.8630   29.5900 C   0  0  0  0  0  0  0  0  0  0  0  0
   47.6800   37.0170   29.1260 C   0  0  0  0  0  0  0  0  0  0  0  0
   48.1730   37.6120   27.7990 C   0  0  0  0  0  0  0  0  0  0  0  0
   47.3030   37.4100   26.6190 C   0  0  0  0  0  0  0  0  0  0  0  0
   47.4100   36.0800   25.8830 C   0  0  0  0  0  0  0  0  0  0  0  0
   48.4380   35.3710   26.0390 O   0  0  0  0  0  0  0  0  0  0  0  0
   46.4510   35.7140   25.1580 O   0  0  0  0  0  0  0  0  0  0  0  0
   54.1113   36.2361   32.0511 H   0  0  0  0  0  0  0  0  0  0  0  0
   52.9873   35.2952   31.0129 H   0  0  0  0  0  0  0  0  0  0  0  0
   52.9200   37.0902   31.0129 H   0  0  0  0  0  0  0  0  0  0  0  0
   52.4043   35.2956   33.3259 H   0  0  0  0  0  0  0  0  0  0  0  0
   52.2236   37.1767   33.1194 H   0  0  0  0  0  0  0  0  0  0  0  0
   50.3295   35.6007   33.3775 H   0  0  0  0  0  0  0  0  0  0  0  0
   50.4807   37.1022   32.2443 H   0  0  0  0  0  0  0  0  0  0  0  0
   50.9069   35.4930   30.4769 H   0  0  0  0  0  0  0  0  0  0  0  0
   50.1960   34.2647   31.6346 H   0  0  0  0  0  0  0  0  0  0  0  0
   48.2067   34.9436   31.3679 H   0  0  0  0  0  0  0  0  0  0  0  0
   48.8245   36.7453   31.3029 H   0  0  0  0  0  0  0  0  0  0  0  0
   49.3949   35.8669   28.9945 H   0  0  0  0  0  0  0  0  0  0  0  0
   47.7528   35.0373   29.4724 H   0  0  0  0  0  0  0  0  0  0  0  0
   46.6370   36.6930   28.9946 H   0  0  0  0  0  0  0  0  0  0  0  0
   47.7836   37.8035   29.8880 H   0  0  0  0  0  0  0  0  0  0  0  0
   48.2934   38.6958   27.9434 H   0  0  0  0  0  0  0  0  0  0  0  0
   49.1046   37.0745   27.5682 H   0  0  0  0  0  0  0  0  0  0  0  0
   46.2613   37.5168   26.9560 H   0  0  0  0  0  0  0  0  0  0  0  0
   47.6422   38.1607   25.8901 H   0  0  0  0  0  0  0  0  0  0  0  0
   46.5470   35.7120   24.1730 H   0  0  0  0  0  0  0  0  0  0  0  0
  1  2  1  0
  2  3  1  0
  3  4  1  0
  4  5  1  0
  5  6  1  0
  6  7  1  0
  7  8  1  0
  8  9  1  0
  9 10  1  0
 10 11  2  0
 10 12  1  0
  1 13  1  0
  1 14  1  0
  1 15  1  0
  2 16  1  0
  2 17  1  0
  3 18  1  0
  3 19  1  0
  4 20  1  0
  4 21  1  0
  5 22  1  0
  5 23  1  0
  6 24  1  0
  6 25  1  0
  7 26  1  0
  7 27  1  0
  8 28  1  0
  8 29  1  0
  9 30  1  0
  9 31  1  0
 12 32  1  0
M  END
>  <meeko>  (16) 
{"is_sidechain": [false], "free_energy": -4.125, "intermolecular_energy": -6.245, "internal_energy": -0.455}

$$$$
DKA_neutral_vinardo_focused_run01
     RDKit          3D

 32 31  0  0  0  0  0  0  0  0999 V2000
   49.5920   35.6610   32.1720 C   0  0  0  0  0  0  0  0  0  0  0  0
   48.4700   35.7560   31.2760 C   0  0  0  0  0  0  0  0  0  0  0  0
   48.6170   36.0190   29.9140 C   0  0  0  0  0  0  0  0  0  0  0  0
   47.6120   36.7890   29.1850 C   0  0  0  0  0  0  0  0  0  0  0  0
   48.1560   37.5820   28.0670 C   0  0  0  0  0  0  0  0  0  0  0  0
   47.5580   37.6210   26.7840 C   0  0  0  0  0  0  0  0  0  0  0  0
   47.8440   36.6160   25.7450 C   0  0  0  0  0  0  0  0  0  0  0  0
   46.8030   35.4890   25.6700 C   0  0  0  0  0  0  0  0  0  0  0  0
   47.3230   34.1190   25.4670 C   0  0  0  0  0  0  0  0  0  0  0  0
   48.6370   33.7550   26.1470 C   0  0  0  0  0  0  0  0  0  0  0  0
   48.6840   33.6960   27.4040 O   0  0  0  0  0  0  0  0  0  0  0  0
   49.6360   33.4960   25.4290 O   0  0  0  0  0  0  0  0  0  0  0  0
   49.2344   35.6913   33.2118 H   0  0  0  0  0  0  0  0  0  0  0  0
   50.1238   34.7146   31.9945 H   0  0  0  0  0  0  0  0  0  0  0  0
   50.2754   36.5045   31.9945 H   0  0  0  0  0  0  0  0  0  0  0  0
   47.9415   34.7938   31.3457 H   0  0  0  0  0  0  0  0  0  0  0  0
   47.9766   36.6732   31.6301 H   0  0  0  0  0  0  0  0  0  0  0  0
   49.5684   36.5593   29.8004 H   0  0  0  0  0  0  0  0  0  0  0  0
   48.5307   35.0193   29.4632 H   0  0  0  0  0  0  0  0  0  0  0  0
   46.8661   36.0887   28.7811 H   0  0  0  0  0  0  0  0  0  0  0  0
   47.1795   37.5040   29.9004 H   0  0  0  0  0  0  0  0  0  0  0  0
   48.1834   38.6235   28.4199 H   0  0  0  0  0  0  0  0  0  0  0  0
   49.0939   37.0476   27.8554 H   0  0  0  0  0  0  0  0  0  0  0  0
   46.4716   37.5852   26.9524 H   0  0  0  0  0  0  0  0  0  0  0  0
   48.0107   38.5258   26.3523 H   0  0  0  0  0  0  0  0  0  0  0  0
   47.8757   37.1244   24.7700 H   0  0  0  0  0  0  0  0  0  0  0  0
   48.8045   36.1483   26.0071 H   0  0  0  0  0  0  0  0  0  0  0  0
   46.2367   35.4946   26.6130 H   0  0  0  0  0  0  0  0  0  0  0  0
   46.2035   35.7073   24.7739 H   0  0  0  0  0  0  0  0  0  0  0  0
   46.5578   33.4189   25.8336 H   0  0  0  0  0  0  0  0  0  0  0  0
   47.5400   34.0594   24.3903 H   0  0  0  0  0  0  0  0  0  0  0  0
   49.6640   33.8080   24.4900 H   0  0  0  0  0  0  0  0  0  0  0  0
  1  2  1  0
  2  3  1  0
  3  4  1  0
  4  5  1  0
  5  6  1  0
  6  7  1  0
  7  8  1  0
  8  9  1  0
  9 10  1  0
 10 11  2  0
 10 12  1  0
  1 13  1  0
  1 14  1  0
  1 15  1  0
  2 16  1  0
  2 17  1  0
  3 18  1  0
  3 19  1  0
  4 20  1  0
  4 21  1  0
  5 22  1  0
  5 23  1  0
  6 24  1  0
  6 25  1  0
  7 26  1  0
  7 27  1  0
  8 28  1  0
  8 29  1  0
  9 30  1  0
  9 31  1  0
 12 32  1  0
M  END
>  <meeko>  (17) 
{"is_sidechain": [false], "free_energy": -4.105, "intermolecular_energy": -5.86, "internal_energy": -0.811}

$$$$
DKA_neutral_vinardo_focused_run01
     RDKit          3D

 32 31  0  0  0  0  0  0  0  0999 V2000
   47.9100   36.9930   28.8970 C   0  0  0  0  0  0  0  0  0  0  0  0
   48.0110   37.8850   27.7730 C   0  0  0  0  0  0  0  0  0  0  0  0
   47.6220   37.5150   26.4840 C   0  0  0  0  0  0  0  0  0  0  0  0
   47.9060   36.1780   25.9680 C   0  0  0  0  0  0  0  0  0  0  0  0
   46.7340   35.4940   25.3920 C   0  0  0  0  0  0  0  0  0  0  0  0
   46.3970   34.1520   25.6940 C   0  0  0  0  0  0  0  0  0  0  0  0
   46.8470   33.4790   26.9250 C   0  0  0  0  0  0  0  0  0  0  0  0
   46.7200   31.9490   26.8770 C   0  0  0  0  0  0  0  0  0  0  0  0
   47.3810   31.2650   25.7430 C   0  0  0  0  0  0  0  0  0  0  0  0
   46.8800   29.8760   25.3690 C   0  0  0  0  0  0  0  0  0  0  0  0
   47.6410   28.8850   25.5200 O   0  0  0  0  0  0  0  0  0  0  0  0
   45.7030   29.7540   24.9420 O   0  0  0  0  0  0  0  0  0  0  0  0
   47.9754   37.5708   29.8307 H   0  0  0  0  0  0  0  0  0  0  0  0
   46.9462   36.4641   28.8599 H   0  0  0  0  0  0  0  0  0  0  0  0
   48.7311   36.2620   28.8599 H   0  0  0  0  0  0  0  0  0  0  0  0
   47.4111   38.7703   28.0308 H   0  0  0  0  0  0  0  0  0  0  0  0
   49.1008   37.9828   27.6602 H   0  0  0  0  0  0  0  0  0  0  0  0
   46.5305   37.6430   26.4377 H   0  0  0  0  0  0  0  0  0  0  0  0
   48.2478   38.1583   25.8479 H   0  0  0  0  0  0  0  0  0  0  0  0
   48.6741   36.2656   25.1854 H   0  0  0  0  0  0  0  0  0  0  0  0
   48.2386   35.5717   26.8235 H   0  0  0  0  0  0  0  0  0  0  0  0
   45.8601   36.0975   25.6787 H   0  0  0  0  0  0  0  0  0  0  0  0
   47.0245   35.4145   24.3340 H   0  0  0  0  0  0  0  0  0  0  0  0
   45.2979   34.1089   25.7070 H   0  0  0  0  0  0  0  0  0  0  0  0
   46.9528   33.6013   24.9208 H   0  0  0  0  0  0  0  0  0  0  0  0
   47.9037   33.7342   27.0933 H   0  0  0  0  0  0  0  0  0  0  0  0
   46.1946   33.8292   27.7384 H   0  0  0  0  0  0  0  0  0  0  0  0
   47.1522   31.5488   27.8060 H   0  0  0  0  0  0  0  0  0  0  0  0
   45.6456   31.7507   26.7492 H   0  0  0  0  0  0  0  0  0  0  0  0
   47.2632   31.9069   24.8575 H   0  0  0  0  0  0  0  0  0  0  0  0
   48.4173   31.1079   26.0769 H   0  0  0  0  0  0  0  0  0  0  0  0
   45.0720   29.1440   25.3990 H   0  0  0  0  0  0  0  0  0  0  0  0
  1  2  1  0
  2  3  1  0
  3  4  1  0
  4  5  1  0
  5  6  1  0
  6  7  1  0
  7  8  1  0
  8  9  1  0
  9 10  1  0
 10 11  2  0
 10 12  1  0
  1 13  1  0
  1 14  1  0
  1 15  1  0
  2 16  1  0
  2 17  1  0
  3 18  1  0
  3 19  1  0
  4 20  1  0
  4 21  1  0
  5 22  1  0
  5 23  1  0
  6 24  1  0
  6 25  1  0
  7 26  1  0
  7 27  1  0
  8 28  1  0
  8 29  1  0
  9 30  1  0
  9 31  1  0
 12 32  1  0
M  END
>  <meeko>  (18) 
{"is_sidechain": [false], "free_energy": -4.097, "intermolecular_energy": -5.996, "internal_energy": -0.663}

$$$$
DKA_neutral_vinardo_focused_run01
     RDKit          3D

 32 31  0  0  0  0  0  0  0  0999 V2000
   48.3360   32.3760   28.8070 C   0  0  0  0  0  0  0  0  0  0  0  0
   48.7140   33.7590   28.9360 C   0  0  0  0  0  0  0  0  0  0  0  0
   47.8350   34.7380   29.4010 C   0  0  0  0  0  0  0  0  0  0  0  0
   48.3220   36.0550   29.8020 C   0  0  0  0  0  0  0  0  0  0  0  0
   47.6900   37.1760   29.0810 C   0  0  0  0  0  0  0  0  0  0  0  0
   48.2000   37.7000   27.8690 C   0  0  0  0  0  0  0  0  0  0  0  0
   47.4590   37.6190   26.5970 C   0  0  0  0  0  0  0  0  0  0  0  0
   47.8280   36.3970   25.7430 C   0  0  0  0  0  0  0  0  0  0  0  0
   46.7460   35.4220   25.4790 C   0  0  0  0  0  0  0  0  0  0  0  0
   47.1300   33.9520   25.3770 C   0  0  0  0  0  0  0  0  0  0  0  0
   48.3440   33.6390   25.2590 O   0  0  0  0  0  0  0  0  0  0  0  0
   46.2210   33.0860   25.4430 O   0  0  0  0  0  0  0  0  0  0  0  0
   48.2152   31.9341   29.8071 H   0  0  0  0  0  0  0  0  0  0  0  0
   47.3856   32.3053   28.2577 H   0  0  0  0  0  0  0  0  0  0  0  0
   49.1183   31.8318   28.2577 H   0  0  0  0  0  0  0  0  0  0  0  0
   49.5782   33.7769   29.6164 H   0  0  0  0  0  0  0  0  0  0  0  0
   48.8443   34.0552   27.8847 H   0  0  0  0  0  0  0  0  0  0  0  0
   47.1014   34.9064   28.5989 H   0  0  0  0  0  0  0  0  0  0  0  0
   47.4778   34.3121   30.3502 H   0  0  0  0  0  0  0  0  0  0  0  0
   48.1278   36.1825   30.8772 H   0  0  0  0  0  0  0  0  0  0  0  0
   49.3941   36.0847   29.5575 H   0  0  0  0  0  0  0  0  0  0  0  0
   46.6612   36.8538   28.8624 H   0  0  0  0  0  0  0  0  0  0  0  0
   47.8693   38.0114   29.7738 H   0  0  0  0  0  0  0  0  0  0  0  0
   48.3795   38.7700   28.0504 H   0  0  0  0  0  0  0  0  0  0  0  0
   49.0528   37.0326   27.6760 H   0  0  0  0  0  0  0  0  0  0  0  0
   46.3837   37.5718   26.8241 H   0  0  0  0  0  0  0  0  0  0  0  0
   47.7263   38.5117   26.0124 H   0  0  0  0  0  0  0  0  0  0  0  0
   48.1895   36.7655   24.7717 H   0  0  0  0  0  0  0  0  0  0  0  0
   48.5768   35.8470   26.3319 H   0  0  0  0  0  0  0  0  0  0  0  0
   46.0134   35.5148   26.2943 H   0  0  0  0  0  0  0  0  0  0  0  0
   46.3734   35.6831   24.4775 H   0  0  0  0  0  0  0  0  0  0  0  0
   46.0570   32.6030   26.2910 H   0  0  0  0  0  0  0  0  0  0  0  0
  1  2  1  0
  2  3  1  0
  3  4  1  0
  4  5  1  0
  5  6  1  0
  6  7  1  0
  7  8  1  0
  8  9  1  0
  9 10  1  0
 10 11  2  0
 10 12  1  0
  1 13  1  0
  1 14  1  0
  1 15  1  0
  2 16  1  0
  2 17  1  0
  3 18  1  0
  3 19  1  0
  4 20  1  0
  4 21  1  0
  5 22  1  0
  5 23  1  0
  6 24  1  0
  6 25  1  0
  7 26  1  0
  7 27  1  0
  8 28  1  0
  8 29  1  0
  9 30  1  0
  9 31  1  0
 12 32  1  0
M  END
>  <meeko>  (19) 
{"is_sidechain": [false], "free_energy": -4.067, "intermolecular_energy": -5.404, "internal_energy": -1.211}

$$$$
