DKA_neutral_redock_run01
     RDKit          3D

 32 31  0  0  0  0  0  0  0  0999 V2000
   46.7060   34.7820   25.9480 C   0  0  0  0  0  0  0  0  0  0  0  0
   47.2470   36.0690   25.6020 C   0  0  0  0  0  0  0  0  0  0  0  0
   46.9430   37.2290   26.3160 C   0  0  0  0  0  0  0  0  0  0  0  0
   48.0030   38.1020   26.8160 C   0  0  0  0  0  0  0  0  0  0  0  0
   48.4540   37.7790   28.1820 C   0  0  0  0  0  0  0  0  0  0  0  0
   47.6300   37.1330   29.1360 C   0  0  0  0  0  0  0  0  0  0  0  0
   47.9350   35.7940   29.6700 C   0  0  0  0  0  0  0  0  0  0  0  0
   48.3330   35.7950   31.1530 C   0  0  0  0  0  0  0  0  0  0  0  0
   47.2560   35.5190   32.1300 C   0  0  0  0  0  0  0  0  0  0  0  0
   46.5150   36.7130   32.7180 C   0  0  0  0  0  0  0  0  0  0  0  0
   47.1400   37.5300   33.4430 O   0  0  0  0  0  0  0  0  0  0  0  0
   45.2980   36.8650   32.4370 O   0  0  0  0  0  0  0  0  0  0  0  0
   46.6648   34.6839   27.0428 H   0  0  0  0  0  0  0  0  0  0  0  0
   45.6918   34.6870   25.5329 H   0  0  0  0  0  0  0  0  0  0  0  0
   47.3477   33.9909   25.5329 H   0  0  0  0  0  0  0  0  0  0  0  0
   48.3409   35.9618   25.6457 H   0  0  0  0  0  0  0  0  0  0  0  0
   46.7586   36.2655   24.6362 H   0  0  0  0  0  0  0  0  0  0  0  0
   46.3135   37.8459   25.6579 H   0  0  0  0  0  0  0  0  0  0  0  0
   46.4963   36.8350   27.2408 H   0  0  0  0  0  0  0  0  0  0  0  0
   48.8660   38.0204   26.1388 H   0  0  0  0  0  0  0  0  0  0  0  0
   47.5860   39.1193   26.8517 H   0  0  0  0  0  0  0  0  0  0  0  0
   49.3404   37.1383   28.0644 H   0  0  0  0  0  0  0  0  0  0  0  0
   48.5542   38.7820   28.6225 H   0  0  0  0  0  0  0  0  0  0  0  0
   47.5849   37.8053   30.0055 H   0  0  0  0  0  0  0  0  0  0  0  0
   46.7184   36.9397   28.5516 H   0  0  0  0  0  0  0  0  0  0  0  0
   47.0431   35.1614   29.5506 H   0  0  0  0  0  0  0  0  0  0  0  0
   48.7993   35.4131   29.1062 H   0  0  0  0  0  0  0  0  0  0  0  0
   49.1114   35.0299   31.2898 H   0  0  0  0  0  0  0  0  0  0  0  0
   48.6586   36.8242   31.3644 H   0  0  0  0  0  0  0  0  0  0  0  0
   46.5112   34.8839   31.6282 H   0  0  0  0  0  0  0  0  0  0  0  0
   47.7678   35.0577   32.9875 H   0  0  0  0  0  0  0  0  0  0  0  0
   44.9980   36.8160   31.4950 H   0  0  0  0  0  0  0  0  0  0  0  0
  1  2  1  0
  2  3  1  0
  3  4  1  0
  4  5  1  0
  5  6  1  0
  6  7  1  0
  7  8  1  0
  8  9  1  0
  9 10  1  0
 10 11  2  0
 10 12  1  0
  1 13  1  0
  1 14  1  0
  1 15  1  0
  2 16  1  0
  2 17  1  0
  3 18  1  0
  3 19  1  0
  4 20  1  0
  4 21  1  0
  5 22  1  0
  5 23  1  0
  6 24  1  0
  6 25  1  0
  7 26  1  0
  7 27  1  0
  8 28  1  0
  8 29  1  0
  9 30  1  0
  9 31  1  0
 12 32  1  0
M  END
>  <meeko>  (1) 
{"is_sidechain": [false], "free_energy": -4.765, "intermolecular_energy": -7.133, "internal_energy": -0.602}

$$$$
DKA_neutral_redock_run01
     RDKit          3D

 32 31  0  0  0  0  0  0  0  0999 V2000
   49.2680   32.0210   24.6710 C   0  0  0  0  0  0  0  0  0  0  0  0
   49.7050   33.1150   25.4970 C   0  0  0  0  0  0  0  0  0  0  0  0
   48.8290   34.0850   25.9850 C   0  0  0  0  0  0  0  0  0  0  0  0
   47.3860   33.9580   25.7940 C   0  0  0  0  0  0  0  0  0  0  0  0
   46.6920   35.2410   25.5800 C   0  0  0  0  0  0  0  0  0  0  0  0
   47.3460   36.4950   25.6490 C   0  0  0  0  0  0  0  0  0  0  0  0
   46.9570   37.5400   26.6130 C   0  0  0  0  0  0  0  0  0  0  0  0
   48.1190   38.0470   27.4800 C   0  0  0  0  0  0  0  0  0  0  0  0
   48.6690   37.0960   28.4720 C   0  0  0  0  0  0  0  0  0  0  0  0
   47.6850   36.4090   29.4110 C   0  0  0  0  0  0  0  0  0  0  0  0
   47.4440   35.1830   29.2600 O   0  0  0  0  0  0  0  0  0  0  0  0
   47.1600   37.0840   30.3330 O   0  0  0  0  0  0  0  0  0  0  0  0
   48.9358   31.1893   25.3097 H   0  0  0  0  0  0  0  0  0  0  0  0
   48.4330   32.3518   24.0359 H   0  0  0  0  0  0  0  0  0  0  0  0
   50.1011   31.6855   24.0359 H   0  0  0  0  0  0  0  0  0  0  0  0
   50.1790   32.6605   26.3794 H   0  0  0  0  0  0  0  0  0  0  0  0
   50.3157   33.6984   24.7922 H   0  0  0  0  0  0  0  0  0  0  0  0
   48.9974   34.1412   27.0706 H   0  0  0  0  0  0  0  0  0  0  0  0
   49.0780   34.9658   25.3749 H   0  0  0  0  0  0  0  0  0  0  0  0
   47.2086   33.3187   24.9166 H   0  0  0  0  0  0  0  0  0  0  0  0
   46.9798   33.5285   26.7216 H   0  0  0  0  0  0  0  0  0  0  0  0
   46.2536   35.1835   24.5728 H   0  0  0  0  0  0  0  0  0  0  0  0
   46.0383   35.2862   26.4635 H   0  0  0  0  0  0  0  0  0  0  0  0
   48.4057   36.2762   25.8470 H   0  0  0  0  0  0  0  0  0  0  0  0
   47.0564   36.9529   24.6917 H   0  0  0  0  0  0  0  0  0  0  0  0
   46.5446   38.3922   26.0530 H   0  0  0  0  0  0  0  0  0  0  0  0
   46.2214   37.0888   27.2951 H   0  0  0  0  0  0  0  0  0  0  0  0
   48.9379   38.3360   26.8048 H   0  0  0  0  0  0  0  0  0  0  0  0
   47.7001   38.8741   28.0720 H   0  0  0  0  0  0  0  0  0  0  0  0
   49.1973   36.3082   27.9150 H   0  0  0  0  0  0  0  0  0  0  0  0
   49.2996   37.7120   29.1299 H   0  0  0  0  0  0  0  0  0  0  0  0
   46.9810   38.0480   30.2000 H   0  0  0  0  0  0  0  0  0  0  0  0
  1  2  1  0
  2  3  1  0
  3  4  1  0
  4  5  1  0
  5  6  1  0
  6  7  1  0
  7  8  1  0
  8  9  1  0
  9 10  1  0
 10 11  2  0
 10 12  1  0
  1 13  1  0
  1 14  1  0
  1 15  1  0
  2 16  1  0
  2 17  1  0
  3 18  1  0
  3 19  1  0
  4 20  1  0
  4 21  1  0
  5 22  1  0
  5 23  1  0
  6 24  1  0
  6 25  1  0
  7 26  1  0
  7 27  1  0
  8 28  1  0
  8 29  1  0
  9 30  1  0
  9 31  1  0
 12 32  1  0
M  END
>  <meeko>  (2) 
{"is_sidechain": [false], "free_energy": -4.728, "intermolecular_energy": -6.861, "internal_energy": -0.817}

$$$$
DKA_neutral_redock_run01
     RDKit          3D

 32 31  0  0  0  0  0  0  0  0999 V2000
   47.9680   33.0110   27.7250 C   0  0  0  0  0  0  0  0  0  0  0  0
   47.6250   33.9520   28.7580 C   0  0  0  0  0  0  0  0  0  0  0  0
   48.3650   35.1120   28.9930 C   0  0  0  0  0  0  0  0  0  0  0  0
   47.7710   36.2560   29.6810 C   0  0  0  0  0  0  0  0  0  0  0  0
   47.4800   37.4020   28.8010 C   0  0  0  0  0  0  0  0  0  0  0  0
   48.3750   37.8570   27.8020 C   0  0  0  0  0  0  0  0  0  0  0  0
   48.0540   37.8000   26.3650 C   0  0  0  0  0  0  0  0  0  0  0  0
   46.9170   36.8270   26.0220 C   0  0  0  0  0  0  0  0  0  0  0  0
   47.2930   35.6020   25.2830 C   0  0  0  0  0  0  0  0  0  0  0  0
   46.1800   34.8250   24.5920 C   0  0  0  0  0  0  0  0  0  0  0  0
   45.4570   34.0490   25.2710 O   0  0  0  0  0  0  0  0  0  0  0  0
   45.9970   35.0010   23.3610 O   0  0  0  0  0  0  0  0  0  0  0  0
   48.3104   32.0716   28.1837 H   0  0  0  0  0  0  0  0  0  0  0  0
   47.0841   32.8134   27.1008 H   0  0  0  0  0  0  0  0  0  0  0  0
   48.7717   33.4286   27.1008 H   0  0  0  0  0  0  0  0  0  0  0  0
   46.5989   34.2833   28.5406 H   0  0  0  0  0  0  0  0  0  0  0  0
   47.8253   33.3689   29.6690 H   0  0  0  0  0  0  0  0  0  0  0  0
   49.2404   34.8099   29.5866 H   0  0  0  0  0  0  0  0  0  0  0  0
   48.5347   35.5009   27.9782 H   0  0  0  0  0  0  0  0  0  0  0  0
   46.8290   35.9290   30.1454 H   0  0  0  0  0  0  0  0  0  0  0  0
   48.5103   36.6018   30.4185 H   0  0  0  0  0  0  0  0  0  0  0  0
   46.5448   37.1523   28.2784 H   0  0  0  0  0  0  0  0  0  0  0  0
   47.5055   38.2383   29.5151 H   0  0  0  0  0  0  0  0  0  0  0  0
   48.5735   38.9149   28.0288 H   0  0  0  0  0  0  0  0  0  0  0  0
   49.1909   37.1234   27.8797 H   0  0  0  0  0  0  0  0  0  0  0  0
   47.7597   38.8073   26.0352 H   0  0  0  0  0  0  0  0  0  0  0  0
   48.9546   37.4346   25.8499 H   0  0  0  0  0  0  0  0  0  0  0  0
   46.4478   36.5157   26.9670 H   0  0  0  0  0  0  0  0  0  0  0  0
   46.2546   37.3834   25.3425 H   0  0  0  0  0  0  0  0  0  0  0  0
   48.0192   35.8939   24.5101 H   0  0  0  0  0  0  0  0  0  0  0  0
   47.6744   34.9168   26.0544 H   0  0  0  0  0  0  0  0  0  0  0  0
   46.3820   34.3660   22.7070 H   0  0  0  0  0  0  0  0  0  0  0  0
  1  2  1  0
  2  3  1  0
  3  4  1  0
  4  5  1  0
  5  6  1  0
  6  7  1  0
  7  8  1  0
  8  9  1  0
  9 10  1  0
 10 11  2  0
 10 12  1  0
  1 13  1  0
  1 14  1  0
  1 15  1  0
  2 16  1  0
  2 17  1  0
  3 18  1  0
  3 19  1  0
  4 20  1  0
  4 21  1  0
  5 22  1  0
  5 23  1  0
  6 24  1  0
  6 25  1  0
  7 26  1  0
  7 27  1  0
  8 28  1  0
  8 29  1  0
  9 30  1  0
  9 31  1  0
 12 32  1  0
M  END
>  <meeko>  (3) 
{"is_sidechain": [false], "free_energy": -4.691, "intermolecular_energy": -6.721, "internal_energy": -0.903}

$$$$
DKA_neutral_redock_run01
     RDKit          3D

 32 31  0  0  0  0  0  0  0  0999 V2000
   48.7100   33.3040   25.1750 C   0  0  0  0  0  0  0  0  0  0  0  0
   48.1210   33.9840   26.2980 C   0  0  0  0  0  0  0  0  0  0  0  0
   46.9260   34.6980   26.2010 C   0  0  0  0  0  0  0  0  0  0  0  0
   46.8820   36.0010   25.5410 C   0  0  0  0  0  0  0  0  0  0  0  0
   48.0080   36.8890   25.8850 C   0  0  0  0  0  0  0  0  0  0  0  0
   47.8890   37.9730   26.7890 C   0  0  0  0  0  0  0  0  0  0  0  0
   48.3940   37.9110   28.1720 C   0  0  0  0  0  0  0  0  0  0  0  0
   47.6180   36.9400   29.0720 C   0  0  0  0  0  0  0  0  0  0  0  0
   48.4170   35.9290   29.8010 C   0  0  0  0  0  0  0  0  0  0  0  0
   48.0200   35.6190   31.2380 C   0  0  0  0  0  0  0  0  0  0  0  0
   48.5120   36.3010   32.1750 O   0  0  0  0  0  0  0  0  0  0  0  0
   47.1850   34.7020   31.4480 O   0  0  0  0  0  0  0  0  0  0  0  0
   49.3900   32.5189   25.5372 H   0  0  0  0  0  0  0  0  0  0  0  0
   47.9162   32.8486   24.5646 H   0  0  0  0  0  0  0  0  0  0  0  0
   49.2740   34.0247   24.5646 H   0  0  0  0  0  0  0  0  0  0  0  0
   47.9559   33.2157   27.0677 H   0  0  0  0  0  0  0  0  0  0  0  0
   48.8491   34.7880   26.4812 H   0  0  0  0  0  0  0  0  0  0  0  0
   46.2171   34.0507   25.6639 H   0  0  0  0  0  0  0  0  0  0  0  0
   46.7071   34.9490   27.2494 H   0  0  0  0  0  0  0  0  0  0  0  0
   46.8909   35.8376   24.4532 H   0  0  0  0  0  0  0  0  0  0  0  0
   45.9661   36.5015   25.8883 H   0  0  0  0  0  0  0  0  0  0  0  0
   48.7931   36.2371   26.2957 H   0  0  0  0  0  0  0  0  0  0  0  0
   48.1717   37.4146   24.9327 H   0  0  0  0  0  0  0  0  0  0  0  0
   48.4009   38.8234   26.3149 H   0  0  0  0  0  0  0  0  0  0  0  0
   46.8014   38.0147   26.9483 H   0  0  0  0  0  0  0  0  0  0  0  0
   49.4461   37.5913   28.1430 H   0  0  0  0  0  0  0  0  0  0  0  0
   48.2708   38.9154   28.6033 H   0  0  0  0  0  0  0  0  0  0  0  0
   47.0755   37.5384   29.8188 H   0  0  0  0  0  0  0  0  0  0  0  0
   46.9744   36.3644   28.3904 H   0  0  0  0  0  0  0  0  0  0  0  0
   48.3561   34.9891   29.2327 H   0  0  0  0  0  0  0  0  0  0  0  0
   49.4220   36.3695   29.8777 H   0  0  0  0  0  0  0  0  0  0  0  0
   46.2300   34.9250   31.5890 H   0  0  0  0  0  0  0  0  0  0  0  0
  1  2  1  0
  2  3  1  0
  3  4  1  0
  4  5  1  0
  5  6  1  0
  6  7  1  0
  7  8  1  0
  8  9  1  0
  9 10  1  0
 10 11  2  0
 10 12  1  0
  1 13  1  0
  1 14  1  0
  1 15  1  0
  2 16  1  0
  2 17  1  0
  3 18  1  0
  3 19  1  0
  4 20  1  0
  4 21  1  0
  5 22  1  0
  5 23  1  0
  6 24  1  0
  6 25  1  0
  7 26  1  0
  7 27  1  0
  8 28  1  0
  8 29  1  0
  9 30  1  0
  9 31  1  0
 12 32  1  0
M  END
>  <meeko>  (4) 
{"is_sidechain": [false], "free_energy": -4.65, "intermolecular_energy": -6.806, "internal_energy": -0.756}

$$$$
DKA_neutral_redock_run01
     RDKit          3D

 32 31  0  0  0  0  0  0  0  0999 V2000
   45.8320   34.4580   24.7890 C   0  0  0  0  0  0  0  0  0  0  0  0
   46.8140   34.5150   25.8390 C   0  0  0  0  0  0  0  0  0  0  0  0
   47.6680   35.6050   26.0100 C   0  0  0  0  0  0  0  0  0  0  0  0
   47.1610   36.9740   25.9460 C   0  0  0  0  0  0  0  0  0  0  0  0
   47.6990   37.8640   26.9900 C   0  0  0  0  0  0  0  0  0  0  0  0
   48.3730   37.3870   28.1410 C   0  0  0  0  0  0  0  0  0  0  0  0
   47.6600   36.8210   29.3000 C   0  0  0  0  0  0  0  0  0  0  0  0
   48.5390   35.9370   30.1970 C   0  0  0  0  0  0  0  0  0  0  0  0
   47.8440   35.1620   31.2480 C   0  0  0  0  0  0  0  0  0  0  0  0
   47.2830   35.9310   32.4370 C   0  0  0  0  0  0  0  0  0  0  0  0
   48.0340   36.7130   33.0750 O   0  0  0  0  0  0  0  0  0  0  0  0
   46.0690   35.7820   32.7320 O   0  0  0  0  0  0  0  0  0  0  0  0
   44.8262   34.3996   25.2304 H   0  0  0  0  0  0  0  0  0  0  0  0
   45.9075   35.3620   24.1669 H   0  0  0  0  0  0  0  0  0  0  0  0
   46.0116   33.5688   24.1669 H   0  0  0  0  0  0  0  0  0  0  0  0
   46.2582   34.4118   26.7826 H   0  0  0  0  0  0  0  0  0  0  0  0
   47.5160   33.7251   25.5334 H   0  0  0  0  0  0  0  0  0  0  0  0
   48.1298   35.4883   27.0015 H   0  0  0  0  0  0  0  0  0  0  0  0
   48.3177   35.5453   25.1244 H   0  0  0  0  0  0  0  0  0  0  0  0
   47.4244   37.3944   24.9642 H   0  0  0  0  0  0  0  0  0  0  0  0
   46.0742   36.9177   26.1062 H   0  0  0  0  0  0  0  0  0  0  0  0
   48.4071   38.5343   26.4808 H   0  0  0  0  0  0  0  0  0  0  0  0
   46.7756   38.2695   27.4292 H   0  0  0  0  0  0  0  0  0  0  0  0
   49.0574   36.6007   27.7900 H   0  0  0  0  0  0  0  0  0  0  0  0
   48.7844   38.3163   28.5620 H   0  0  0  0  0  0  0  0  0  0  0  0
   47.2701   37.6515   29.9068 H   0  0  0  0  0  0  0  0  0  0  0  0
   46.8604   36.1789   28.9020 H   0  0  0  0  0  0  0  0  0  0  0  0
   49.0653   35.2217   29.5478 H   0  0  0  0  0  0  0  0  0  0  0  0
   49.1959   36.6345   30.7374 H   0  0  0  0  0  0  0  0  0  0  0  0
   47.0038   34.6379   30.7690 H   0  0  0  0  0  0  0  0  0  0  0  0
   48.6219   34.5133   31.6770 H   0  0  0  0  0  0  0  0  0  0  0  0
   45.8170   35.3710   33.5970 H   0  0  0  0  0  0  0  0  0  0  0  0
  1  2  1  0
  2  3  1  0
  3  4  1  0
  4  5  1  0
  5  6  1  0
  6  7  1  0
  7  8  1  0
  8  9  1  0
  9 10  1  0
 10 11  2  0
 10 12  1  0
  1 13  1  0
  1 14  1  0
  1 15  1  0
  2 16  1  0
  2 17  1  0
  3 18  1  0
  3 19  1  0
  4 20  1  0
  4 21  1  0
  5 22  1  0
  5 23  1  0
  6 24  1  0
  6 25  1  0
  7 26  1  0
  7 27  1  0
  8 28  1  0
  8 29  1  0
  9 30  1  0
  9 31  1  0
 12 32  1  0
M  END
>  <meeko>  (5) 
{"is_sidechain": [false], "free_energy": -4.564, "intermolecular_energy": -7.024, "internal_energy": -0.41}

$$$$
DKA_neutral_redock_run01
     RDKit          3D

 32 31  0  0  0  0  0  0  0  0999 V2000
   48.3640   36.0570   29.5990 C   0  0  0  0  0  0  0  0  0  0  0  0
   47.6900   37.1430   28.9380 C   0  0  0  0  0  0  0  0  0  0  0  0
   48.2860   37.8880   27.9200 C   0  0  0  0  0  0  0  0  0  0  0  0
   47.6810   37.9620   26.5920 C   0  0  0  0  0  0  0  0  0  0  0  0
   47.8670   36.7480   25.7770 C   0  0  0  0  0  0  0  0  0  0  0  0
   46.8280   35.8180   25.5260 C   0  0  0  0  0  0  0  0  0  0  0  0
   46.7330   34.5270   26.2310 C   0  0  0  0  0  0  0  0  0  0  0  0
   48.0950   33.9000   26.5620 C   0  0  0  0  0  0  0  0  0  0  0  0
   48.7460   33.1230   25.4840 C   0  0  0  0  0  0  0  0  0  0  0  0
   50.1690   32.6350   25.7270 C   0  0  0  0  0  0  0  0  0  0  0  0
   50.9110   32.3840   24.7420 O   0  0  0  0  0  0  0  0  0  0  0  0
   50.5720   32.5210   26.9120 O   0  0  0  0  0  0  0  0  0  0  0  0
   48.2845   36.1851   30.6886 H   0  0  0  0  0  0  0  0  0  0  0  0
   47.8982   35.1043   29.3068 H   0  0  0  0  0  0  0  0  0  0  0  0
   49.4245   36.0515   29.3068 H   0  0  0  0  0  0  0  0  0  0  0  0
   46.7728   36.7156   28.5066 H   0  0  0  0  0  0  0  0  0  0  0  0
   47.6147   37.8859   29.7458 H   0  0  0  0  0  0  0  0  0  0  0  0
   48.3583   38.9216   28.2894 H   0  0  0  0  0  0  0  0  0  0  0  0
   49.2200   37.3384   27.7314 H   0  0  0  0  0  0  0  0  0  0  0  0
   46.6014   38.1344   26.7134 H   0  0  0  0  0  0  0  0  0  0  0  0
   48.1851   38.7818   26.0592 H   0  0  0  0  0  0  0  0  0  0  0  0
   48.2072   37.0952   24.7902 H   0  0  0  0  0  0  0  0  0  0  0  0
   48.5405   36.1570   26.4151 H   0  0  0  0  0  0  0  0  0  0  0  0
   45.8868   36.3486   25.7322 H   0  0  0  0  0  0  0  0  0  0  0  0
   47.0557   35.4975   24.4986 H   0  0  0  0  0  0  0  0  0  0  0  0
   46.1861   34.6852   27.1722 H   0  0  0  0  0  0  0  0  0  0  0  0
   46.2153   33.8303   25.5553 H   0  0  0  0  0  0  0  0  0  0  0  0
   48.7776   34.7148   26.8451 H   0  0  0  0  0  0  0  0  0  0  0  0
   47.8929   33.1729   27.3623 H   0  0  0  0  0  0  0  0  0  0  0  0
   48.1222   32.2371   25.2940 H   0  0  0  0  0  0  0  0  0  0  0  0
   48.8320   33.8281   24.6441 H   0  0  0  0  0  0  0  0  0  0  0  0
   51.5390   32.4210   27.0980 H   0  0  0  0  0  0  0  0  0  0  0  0
  1  2  1  0
  2  3  1  0
  3  4  1  0
  4  5  1  0
  5  6  1  0
  6  7  1  0
  7  8  1  0
  8  9  1  0
  9 10  1  0
 10 11  2  0
 10 12  1  0
  1 13  1  0
  1 14  1  0
  1 15  1  0
  2 16  1  0
  2 17  1  0
  3 18  1  0
  3 19  1  0
  4 20  1  0
  4 21  1  0
  5 22  1  0
  5 23  1  0
  6 24  1  0
  6 25  1  0
  7 26  1  0
  7 27  1  0
  8 28  1  0
  8 29  1  0
  9 30  1  0
  9 31  1  0
 12 32  1  0
M  END
>  <meeko>  (6) 
{"is_sidechain": [false], "free_energy": -4.541, "intermolecular_energy": -6.597, "internal_energy": -0.803}

$$$$
DKA_neutral_redock_run01
     RDKit          3D

 32 31  0  0  0  0  0  0  0  0999 V2000
   50.1950   32.9980   25.4370 C   0  0  0  0  0  0  0  0  0  0  0  0
   48.8620   32.7690   24.9450 C   0  0  0  0  0  0  0  0  0  0  0  0
   47.7380   32.8150   25.7710 C   0  0  0  0  0  0  0  0  0  0  0  0
   47.2380   34.0870   26.2880 C   0  0  0  0  0  0  0  0  0  0  0  0
   47.1500   34.1460   27.7590 C   0  0  0  0  0  0  0  0  0  0  0  0
   48.0830   34.8480   28.5610 C   0  0  0  0  0  0  0  0  0  0  0  0
   47.6710   35.8370   29.5730 C   0  0  0  0  0  0  0  0  0  0  0  0
   47.5200   37.2620   29.0200 C   0  0  0  0  0  0  0  0  0  0  0  0
   48.3910   37.6270   27.8800 C   0  0  0  0  0  0  0  0  0  0  0  0
   47.7170   37.9460   26.5520 C   0  0  0  0  0  0  0  0  0  0  0  0
   46.6060   37.4180   26.2820 O   0  0  0  0  0  0  0  0  0  0  0  0
   48.2790   38.7540   25.7700 O   0  0  0  0  0  0  0  0  0  0  0  0
   50.1852   32.9963   26.5370 H   0  0  0  0  0  0  0  0  0  0  0  0
   50.8614   32.2012   25.0750 H   0  0  0  0  0  0  0  0  0  0  0  0
   50.5572   33.9715   25.0750 H   0  0  0  0  0  0  0  0  0  0  0  0
   48.6938   33.5197   24.1588 H   0  0  0  0  0  0  0  0  0  0  0  0
   48.9011   31.7026   24.6780 H   0  0  0  0  0  0  0  0  0  0  0  0
   46.9126   32.3620   25.2022 H   0  0  0  0  0  0  0  0  0  0  0  0
   48.0839   32.3022   26.6806 H   0  0  0  0  0  0  0  0  0  0  0  0
   47.9134   34.8868   25.9499 H   0  0  0  0  0  0  0  0  0  0  0  0
   46.2140   34.2051   25.9039 H   0  0  0  0  0  0  0  0  0  0  0  0
   46.1663   34.5827   27.9863 H   0  0  0  0  0  0  0  0  0  0  0  0
   47.3653   33.1029   28.0338 H   0  0  0  0  0  0  0  0  0  0  0  0
   48.6601   34.0820   29.0997 H   0  0  0  0  0  0  0  0  0  0  0  0
   48.5870   35.4828   27.8174 H   0  0  0  0  0  0  0  0  0  0  0  0
   46.7035   35.5228   29.9915 H   0  0  0  0  0  0  0  0  0  0  0  0
   48.4665   35.8700   30.3320 H   0  0  0  0  0  0  0  0  0  0  0  0
   46.4763   37.3849   28.6951 H   0  0  0  0  0  0  0  0  0  0  0  0
   47.8256   37.9258   29.8422 H   0  0  0  0  0  0  0  0  0  0  0  0
   48.9682   38.5148   28.1778 H   0  0  0  0  0  0  0  0  0  0  0  0
   48.9854   36.7229   27.6817 H   0  0  0  0  0  0  0  0  0  0  0  0
   49.1550   38.5260   25.3690 H   0  0  0  0  0  0  0  0  0  0  0  0
  1  2  1  0
  2  3  1  0
  3  4  1  0
  4  5  1  0
  5  6  1  0
  6  7  1  0
  7  8  1  0
  8  9  1  0
  9 10  1  0
 10 11  2  0
 10 12  1  0
  1 13  1  0
  1 14  1  0
  1 15  1  0
  2 16  1  0
  2 17  1  0
  3 18  1  0
  3 19  1  0
  4 20  1  0
  4 21  1  0
  5 22  1  0
  5 23  1  0
  6 24  1  0
  6 25  1  0
  7 26  1  0
  7 27  1  0
  8 28  1  0
  8 29  1  0
  9 30  1  0
  9 31  1  0
 12 32  1  0
M  END
>  <meeko>  (7) 
{"is_sidechain": [false], "free_energy": -4.438, "intermolecular_energy": -6.614, "internal_energy": -0.632}

$$$$
DKA_neutral_redock_run01
     RDKit          3D

 32 31  0  0  0  0  0  0  0  0999 V2000
   48.8550   35.3420   29.3800 C   0  0  0  0  0  0  0  0  0  0  0  0
   47.7270   36.1750   29.7000 C   0  0  0  0  0  0  0  0  0  0  0  0
   47.4130   37.3260   28.9750 C   0  0  0  0  0  0  0  0  0  0  0  0
   48.3590   37.8890   28.0150 C   0  0  0  0  0  0  0  0  0  0  0  0
   47.8690   37.9030   26.6240 C   0  0  0  0  0  0  0  0  0  0  0  0
   47.1110   36.8470   26.0610 C   0  0  0  0  0  0  0  0  0  0  0  0
   47.7030   35.5440   25.7140 C   0  0  0  0  0  0  0  0  0  0  0  0
   46.7260   34.5830   25.0210 C   0  0  0  0  0  0  0  0  0  0  0  0
   45.8760   33.7520   25.9030 C   0  0  0  0  0  0  0  0  0  0  0  0
   46.5590   33.0080   27.0420 C   0  0  0  0  0  0  0  0  0  0  0  0
   47.4490   32.1580   26.7780 O   0  0  0  0  0  0  0  0  0  0  0  0
   46.2310   33.2840   28.2250 O   0  0  0  0  0  0  0  0  0  0  0  0
   49.3282   34.9926   30.3095 H   0  0  0  0  0  0  0  0  0  0  0  0
   48.5162   34.4757   28.7929 H   0  0  0  0  0  0  0  0  0  0  0  0
   49.5833   35.9207   28.7929 H   0  0  0  0  0  0  0  0  0  0  0  0
   46.8413   35.5255   29.6400 H   0  0  0  0  0  0  0  0  0  0  0  0
   48.0268   36.5959   30.6711 H   0  0  0  0  0  0  0  0  0  0  0  0
   46.4936   37.1019   28.4142 H   0  0  0  0  0  0  0  0  0  0  0  0
   47.3687   38.1002   29.7552 H   0  0  0  0  0  0  0  0  0  0  0  0
   48.5796   38.9244   28.3140 H   0  0  0  0  0  0  0  0  0  0  0  0
   49.2494   37.2432   28.0311 H   0  0  0  0  0  0  0  0  0  0  0  0
   47.2466   38.8053   26.5313 H   0  0  0  0  0  0  0  0  0  0  0  0
   48.8096   37.8231   26.0593 H   0  0  0  0  0  0  0  0  0  0  0  0
   46.3042   36.6345   26.7779 H   0  0  0  0  0  0  0  0  0  0  0  0
   46.8627   37.2525   25.0691 H   0  0  0  0  0  0  0  0  0  0  0  0
   48.5543   35.7186   25.0397 H   0  0  0  0  0  0  0  0  0  0  0  0
   48.0042   35.0677   26.6587 H   0  0  0  0  0  0  0  0  0  0  0  0
   46.0595   35.1852   24.3860 H   0  0  0  0  0  0  0  0  0  0  0  0
   47.3599   33.8700   24.4734 H   0  0  0  0  0  0  0  0  0  0  0  0
   45.1189   34.4136   26.3492 H   0  0  0  0  0  0  0  0  0  0  0  0
   45.4831   32.9605   25.2479 H   0  0  0  0  0  0  0  0  0  0  0  0
   45.2970   33.5370   28.4330 H   0  0  0  0  0  0  0  0  0  0  0  0
  1  2  1  0
  2  3  1  0
  3  4  1  0
  4  5  1  0
  5  6  1  0
  6  7  1  0
  7  8  1  0
  8  9  1  0
  9 10  1  0
 10 11  2  0
 10 12  1  0
  1 13  1  0
  1 14  1  0
  1 15  1  0
  2 16  1  0
  2 17  1  0
  3 18  1  0
  3 19  1  0
  4 20  1  0
  4 21  1  0
  5 22  1  0
  5 23  1  0
  6 24  1  0
  6 25  1  0
  7 26  1  0
  7 27  1  0
  8 28  1  0
  8 29  1  0
  9 30  1  0
  9 31  1  0
 12 32  1  0
M  END
>  <meeko>  (8) 
{"is_sidechain": [false], "free_energy": -4.426, "intermolecular_energy": -6.413, "internal_energy": -0.815}

$$$$
DKA_neutral_redock_run01
     RDKit          3D

 32 31  0  0  0  0  0  0  0  0999 V2000
   47.3650   37.7780   26.8300 C   0  0  0  0  0  0  0  0  0  0  0  0
   47.5660   36.8280   25.7680 C   0  0  0  0  0  0  0  0  0  0  0  0
   46.8830   35.6120   25.7100 C   0  0  0  0  0  0  0  0  0  0  0  0
   47.4580   34.3990   26.2870 C   0  0  0  0  0  0  0  0  0  0  0  0
   46.9000   34.0360   27.6020 C   0  0  0  0  0  0  0  0  0  0  0  0
   47.6640   34.0460   28.7950 C   0  0  0  0  0  0  0  0  0  0  0  0
   48.4380   35.2210   29.2310 C   0  0  0  0  0  0  0  0  0  0  0  0
   47.7140   36.0900   30.2700 C   0  0  0  0  0  0  0  0  0  0  0  0
   47.7220   35.5990   31.6660 C   0  0  0  0  0  0  0  0  0  0  0  0
   46.7630   36.2570   32.6500 C   0  0  0  0  0  0  0  0  0  0  0  0
   47.1330   37.2820   33.2790 O   0  0  0  0  0  0  0  0  0  0  0  0
   45.6120   35.7690   32.7870 O   0  0  0  0  0  0  0  0  0  0  0  0
   47.4722   37.2713   27.8004 H   0  0  0  0  0  0  0  0  0  0  0  0
   48.1133   38.5804   26.7507 H   0  0  0  0  0  0  0  0  0  0  0  0
   46.3559   38.2086   26.7507 H   0  0  0  0  0  0  0  0  0  0  0  0
   47.3258   37.3580   24.8345 H   0  0  0  0  0  0  0  0  0  0  0  0
   48.5988   36.4978   25.9534 H   0  0  0  0  0  0  0  0  0  0  0  0
   45.9178   35.7708   26.2132 H   0  0  0  0  0  0  0  0  0  0  0  0
   46.8765   35.3887   24.6329 H   0  0  0  0  0  0  0  0  0  0  0  0
   47.2757   33.5658   25.5923 H   0  0  0  0  0  0  0  0  0  0  0  0
   48.5291   34.5972   26.4403 H   0  0  0  0  0  0  0  0  0  0  0  0
   46.0597   34.7245   27.7748 H   0  0  0  0  0  0  0  0  0  0  0  0
   46.7117   32.9602   27.4711 H   0  0  0  0  0  0  0  0  0  0  0  0
   46.9595   33.8249   29.6104 H   0  0  0  0  0  0  0  0  0  0  0  0
   48.4618   33.3270   28.5570 H   0  0  0  0  0  0  0  0  0  0  0  0
   49.3832   34.8699   29.6707 H   0  0  0  0  0  0  0  0  0  0  0  0
   48.5948   35.8491   28.3417 H   0  0  0  0  0  0  0  0  0  0  0  0
   48.1875   37.0829   30.2628 H   0  0  0  0  0  0  0  0  0  0  0  0
   46.6567   36.0842   29.9667 H   0  0  0  0  0  0  0  0  0  0  0  0
   47.4811   34.5260   31.6390 H   0  0  0  0  0  0  0  0  0  0  0  0
   48.7246   35.8476   32.0441 H   0  0  0  0  0  0  0  0  0  0  0  0
   45.0140   35.6830   32.0020 H   0  0  0  0  0  0  0  0  0  0  0  0
  1  2  1  0
  2  3  1  0
  3  4  1  0
  4  5  1  0
  5  6  1  0
  6  7  1  0
  7  8  1  0
  8  9  1  0
  9 10  1  0
 10 11  2  0
 10 12  1  0
  1 13  1  0
  1 14  1  0
  1 15  1  0
  2 16  1  0
  2 17  1  0
  3 18  1  0
  3 19  1  0
  4 20  1  0
  4 21  1  0
  5 22  1  0
  5 23  1  0
  6 24  1  0
  6 25  1  0
  7 26  1  0
  7 27  1  0
  8 28  1  0
  8 29  1  0
  9 30  1  0
  9 31  1  0
 12 32  1  0
M  END
>  <meeko>  (9) 
{"is_sidechain": [false], "free_energy": -4.257, "intermolecular_energy": -6.282, "internal_energy": -0.692}

$$$$
DKA_neutral_redock_run01
     RDKit          3D

 32 31  0  0  0  0  0  0  0  0999 V2000
   47.3510   31.9850   28.5150 C   0  0  0  0  0  0  0  0  0  0  0  0
   46.2250   32.2770   27.6690 C   0  0  0  0  0  0  0  0  0  0  0  0
   46.1390   33.4450   26.9110 C   0  0  0  0  0  0  0  0  0  0  0  0
   46.2590   33.4070   25.4550 C   0  0  0  0  0  0  0  0  0  0  0  0
   46.7490   34.6630   24.8590 C   0  0  0  0  0  0  0  0  0  0  0  0
   46.6860   35.9120   25.5240 C   0  0  0  0  0  0  0  0  0  0  0  0
   47.8870   36.7020   25.8430 C   0  0  0  0  0  0  0  0  0  0  0  0
   47.6350   37.8370   26.8470 C   0  0  0  0  0  0  0  0  0  0  0  0
   48.3370   37.7410   28.1460 C   0  0  0  0  0  0  0  0  0  0  0  0
   47.7400   36.8230   29.2050 C   0  0  0  0  0  0  0  0  0  0  0  0
   47.1070   37.3250   30.1700 O   0  0  0  0  0  0  0  0  0  0  0  0
   47.8740   35.5800   29.0690 O   0  0  0  0  0  0  0  0  0  0  0  0
   47.0476   32.0637   29.5694 H   0  0  0  0  0  0  0  0  0  0  0  0
   47.7078   30.9646   28.3113 H   0  0  0  0  0  0  0  0  0  0  0  0
   48.1587   32.7034   28.3113 H   0  0  0  0  0  0  0  0  0  0  0  0
   46.1557   31.4435   26.9545 H   0  0  0  0  0  0  0  0  0  0  0  0
   45.4226   32.4275   28.4062 H   0  0  0  0  0  0  0  0  0  0  0  0
   45.1579   33.8903   27.1326 H   0  0  0  0  0  0  0  0  0  0  0  0
   47.0406   33.9974   27.2141 H   0  0  0  0  0  0  0  0  0  0  0  0
   46.9583   32.6014   25.1868 H   0  0  0  0  0  0  0  0  0  0  0  0
   45.2470   33.2406   25.0573 H   0  0  0  0  0  0  0  0  0  0  0  0
   47.8120   34.4950   24.6312 H   0  0  0  0  0  0  0  0  0  0  0  0
   46.0273   34.8135   24.0426 H   0  0  0  0  0  0  0  0  0  0  0  0
   46.0526   36.5587   24.8991 H   0  0  0  0  0  0  0  0  0  0  0  0
   46.3394   35.6161   26.5252 H   0  0  0  0  0  0  0  0  0  0  0  0
   48.6441   36.0259   26.2670 H   0  0  0  0  0  0  0  0  0  0  0  0
   48.2192   37.1719   24.9056 H   0  0  0  0  0  0  0  0  0  0  0  0
   47.9433   38.7790   26.3700 H   0  0  0  0  0  0  0  0  0  0  0  0
   46.5642   37.7757   27.0910 H   0  0  0  0  0  0  0  0  0  0  0  0
   49.3586   37.3877   27.9425 H   0  0  0  0  0  0  0  0  0  0  0  0
   48.2637   38.7500   28.5780 H   0  0  0  0  0  0  0  0  0  0  0  0
   47.7260   35.1600   28.1850 H   0  0  0  0  0  0  0  0  0  0  0  0
  1  2  1  0
  2  3  1  0
  3  4  1  0
  4  5  1  0
  5  6  1  0
  6  7  1  0
  7  8  1  0
  8  9  1  0
  9 10  1  0
 10 11  2  0
 10 12  1  0
  1 13  1  0
  1 14  1  0
  1 15  1  0
  2 16  1  0
  2 17  1  0
  3 18  1  0
  3 19  1  0
  4 20  1  0
  4 21  1  0
  5 22  1  0
  5 23  1  0
  6 24  1  0
  6 25  1  0
  7 26  1  0
  7 27  1  0
  8 28  1  0
  8 29  1  0
  9 30  1  0
  9 31  1  0
 12 32  1  0
M  END
>  <meeko>  (10) 
{"is_sidechain": [false], "free_energy": -4.194, "intermolecular_energy": -6.391, "internal_energy": -0.489}

$$$$
DKA_neutral_redock_run01
     RDKit          3D

 32 31  0  0  0  0  0  0  0  0999 V2000
   47.6410   37.6690   26.1700 C   0  0  0  0  0  0  0  0  0  0  0  0
   47.6090   36.2380   26.0210 C   0  0  0  0  0  0  0  0  0  0  0  0
   46.5830   35.5760   25.3450 C   0  0  0  0  0  0  0  0  0  0  0  0
   46.6070   34.1240   25.1810 C   0  0  0  0  0  0  0  0  0  0  0  0
   47.8400   33.4830   25.6720 C   0  0  0  0  0  0  0  0  0  0  0  0
   48.8440   32.9750   24.8110 C   0  0  0  0  0  0  0  0  0  0  0  0
   49.9660   32.1550   25.2990 C   0  0  0  0  0  0  0  0  0  0  0  0
   51.3120   32.8930   25.3180 C   0  0  0  0  0  0  0  0  0  0  0  0
   52.5190   32.0780   25.0570 C   0  0  0  0  0  0  0  0  0  0  0  0
   53.8750   32.7180   25.3270 C   0  0  0  0  0  0  0  0  0  0  0  0
   54.7930   32.5990   24.4740 O   0  0  0  0  0  0  0  0  0  0  0  0
   54.0300   33.3750   26.3880 O   0  0  0  0  0  0  0  0  0  0  0  0
   47.6468   37.9262   27.2395 H   0  0  0  0  0  0  0  0  0  0  0  0
   48.5483   38.0672   25.6922 H   0  0  0  0  0  0  0  0  0  0  0  0
   46.7524   38.1074   25.6922 H   0  0  0  0  0  0  0  0  0  0  0  0
   48.5410   35.9640   25.5049 H   0  0  0  0  0  0  0  0  0  0  0  0
   47.4452   35.9076   27.0574 H   0  0  0  0  0  0  0  0  0  0  0  0
   45.6511   35.8156   25.8781 H   0  0  0  0  0  0  0  0  0  0  0  0
   46.6982   35.9390   24.3130 H   0  0  0  0  0  0  0  0  0  0  0  0
   45.7544   33.7001   25.7318 H   0  0  0  0  0  0  0  0  0  0  0  0
   46.5555   33.9261   24.1002 H   0  0  0  0  0  0  0  0  0  0  0  0
   48.3368   34.2304   26.3081 H   0  0  0  0  0  0  0  0  0  0  0  0
   47.4438   32.5578   26.1158 H   0  0  0  0  0  0  0  0  0  0  0  0
   48.3218   32.3625   24.0612 H   0  0  0  0  0  0  0  0  0  0  0  0
   49.3580   33.8955   24.4972 H   0  0  0  0  0  0  0  0  0  0  0  0
   49.7359   31.8273   26.3235 H   0  0  0  0  0  0  0  0  0  0  0  0
   50.0734   31.3118   24.6008 H   0  0  0  0  0  0  0  0  0  0  0  0
   51.2705   33.6822   24.5529 H   0  0  0  0  0  0  0  0  0  0  0  0
   51.4271   33.2591   26.3489 H   0  0  0  0  0  0  0  0  0  0  0  0
   52.4496   31.1771   25.6844 H   0  0  0  0  0  0  0  0  0  0  0  0
   52.5058   31.8995   23.9717 H   0  0  0  0  0  0  0  0  0  0  0  0
   54.5430   34.2220   26.3750 H   0  0  0  0  0  0  0  0  0  0  0  0
  1  2  1  0
  2  3  1  0
  3  4  1  0
  4  5  1  0
  5  6  1  0
  6  7  1  0
  7  8  1  0
  8  9  1  0
  9 10  1  0
 10 11  2  0
 10 12  1  0
  1 13  1  0
  1 14  1  0
  1 15  1  0
  2 16  1  0
  2 17  1  0
  3 18  1  0
  3 19  1  0
  4 20  1  0
  4 21  1  0
  5 22  1  0
  5 23  1  0
  6 24  1  0
  6 25  1  0
  7 26  1  0
  7 27  1  0
  8 28  1  0
  8 29  1  0
  9 30  1  0
  9 31  1  0
 12 32  1  0
M  END
>  <meeko>  (11) 
{"is_sidechain": [false], "free_energy": -4.188, "intermolecular_energy": -6.565, "internal_energy": -0.305}

$$$$
DKA_neutral_redock_run01
     RDKit          3D

 32 31  0  0  0  0  0  0  0  0999 V2000
   45.9030   34.4840   24.7790 C   0  0  0  0  0  0  0  0  0  0  0  0
   46.8810   34.4050   25.8310 C   0  0  0  0  0  0  0  0  0  0  0  0
   47.7070   35.4780   26.1710 C   0  0  0  0  0  0  0  0  0  0  0  0
   47.3020   36.8540   25.8940 C   0  0  0  0  0  0  0  0  0  0  0  0
   47.8090   37.8380   26.8680 C   0  0  0  0  0  0  0  0  0  0  0  0
   48.2980   37.4780   28.1480 C   0  0  0  0  0  0  0  0  0  0  0  0
   47.4130   37.0320   29.2370 C   0  0  0  0  0  0  0  0  0  0  0  0
   47.9350   35.8020   29.9960 C   0  0  0  0  0  0  0  0  0  0  0  0
   49.3790   35.7870   30.3190 C   0  0  0  0  0  0  0  0  0  0  0  0
   49.9460   34.5240   30.9530 C   0  0  0  0  0  0  0  0  0  0  0  0
   50.3460   33.5880   30.2110 O   0  0  0  0  0  0  0  0  0  0  0  0
   50.0250   34.4610   32.2060 O   0  0  0  0  0  0  0  0  0  0  0  0
   44.8978   34.5652   25.2182 H   0  0  0  0  0  0  0  0  0  0  0  0
   46.1040   35.3688   24.1572 H   0  0  0  0  0  0  0  0  0  0  0  0
   45.9594   33.5784   24.1572 H   0  0  0  0  0  0  0  0  0  0  0  0
   46.3262   34.1455   26.7447 H   0  0  0  0  0  0  0  0  0  0  0  0
   47.6036   33.6886   25.4130 H   0  0  0  0  0  0  0  0  0  0  0  0
   47.8739   35.4131   27.2563 H   0  0  0  0  0  0  0  0  0  0  0  0
   48.5709   35.3402   25.5042 H   0  0  0  0  0  0  0  0  0  0  0  0
   47.6761   37.1303   24.8971 H   0  0  0  0  0  0  0  0  0  0  0  0
   46.2042   36.8807   25.9580 H   0  0  0  0  0  0  0  0  0  0  0  0
   48.6344   38.3635   26.3655 H   0  0  0  0  0  0  0  0  0  0  0  0
   46.8890   38.3811   27.1298 H   0  0  0  0  0  0  0  0  0  0  0  0
   49.0143   36.6598   27.9822 H   0  0  0  0  0  0  0  0  0  0  0  0
   48.6577   38.4442   28.5316 H   0  0  0  0  0  0  0  0  0  0  0  0
   47.3002   37.8593   29.9531 H   0  0  0  0  0  0  0  0  0  0  0  0
   46.4578   36.7419   28.7751 H   0  0  0  0  0  0  0  0  0  0  0  0
   47.3803   35.7342   30.9435 H   0  0  0  0  0  0  0  0  0  0  0  0
   47.7814   34.9531   29.3136 H   0  0  0  0  0  0  0  0  0  0  0  0
   49.9278   35.9596   29.3815 H   0  0  0  0  0  0  0  0  0  0  0  0
   49.5017   36.5647   31.0872 H   0  0  0  0  0  0  0  0  0  0  0  0
   49.8280   33.6100   32.6730 H   0  0  0  0  0  0  0  0  0  0  0  0
  1  2  1  0
  2  3  1  0
  3  4  1  0
  4  5  1  0
  5  6  1  0
  6  7  1  0
  7  8  1  0
  8  9  1  0
  9 10  1  0
 10 11  2  0
 10 12  1  0
  1 13  1  0
  1 14  1  0
  1 15  1  0
  2 16  1  0
  2 17  1  0
  3 18  1  0
  3 19  1  0
  4 20  1  0
  4 21  1  0
  5 22  1  0
  5 23  1  0
  6 24  1  0
  6 25  1  0
  7 26  1  0
  7 27  1  0
  8 28  1  0
  8 29  1  0
  9 30  1  0
  9 31  1  0
 12 32  1  0
M  END
>  <meeko>  (12) 
{"is_sidechain": [false], "free_energy": -4.188, "intermolecular_energy": -6.41, "internal_energy": -0.461}

$$$$
DKA_neutral_redock_run01
     RDKit          3D

 32 31  0  0  0  0  0  0  0  0999 V2000
   45.5230   27.2540   32.7900 C   0  0  0  0  0  0  0  0  0  0  0  0
   46.3390   26.3030   33.4970 C   0  0  0  0  0  0  0  0  0  0  0  0
   46.7850   26.5190   34.8020 C   0  0  0  0  0  0  0  0  0  0  0  0
   48.0680   27.1680   35.0590 C   0  0  0  0  0  0  0  0  0  0  0  0
   47.9560   28.4990   35.6820 C   0  0  0  0  0  0  0  0  0  0  0  0
   48.0960   29.7070   34.9550 C   0  0  0  0  0  0  0  0  0  0  0  0
   46.9710   30.3390   34.2440 C   0  0  0  0  0  0  0  0  0  0  0  0
   46.6850   31.7800   34.6940 C   0  0  0  0  0  0  0  0  0  0  0  0
   45.3790   32.3510   34.2960 C   0  0  0  0  0  0  0  0  0  0  0  0
   45.3250   33.8420   33.9900 C   0  0  0  0  0  0  0  0  0  0  0  0
   45.8250   34.2690   32.9160 O   0  0  0  0  0  0  0  0  0  0  0  0
   44.7560   34.6060   34.8110 O   0  0  0  0  0  0  0  0  0  0  0  0
   44.9832   27.8831   33.5131 H   0  0  0  0  0  0  0  0  0  0  0  0
   46.1626   27.8878   32.1582 H   0  0  0  0  0  0  0  0  0  0  0  0
   44.7994   26.7181   32.1582 H   0  0  0  0  0  0  0  0  0  0  0  0
   45.7631   25.3662   33.5225 H   0  0  0  0  0  0  0  0  0  0  0  0
   47.2794   26.3469   32.9280 H   0  0  0  0  0  0  0  0  0  0  0  0
   46.0186   27.1334   35.2971 H   0  0  0  0  0  0  0  0  0  0  0  0
   46.9510   25.4972   35.1740 H   0  0  0  0  0  0  0  0  0  0  0  0
   48.6539   26.5215   35.7288 H   0  0  0  0  0  0  0  0  0  0  0  0
   48.5499   27.3154   34.0812 H   0  0  0  0  0  0  0  0  0  0  0  0
   46.9567   28.5356   36.1403 H   0  0  0  0  0  0  0  0  0  0  0  0
   48.8538   28.5200   36.3173 H   0  0  0  0  0  0  0  0  0  0  0  0
   48.4619   30.4551   35.6736 H   0  0  0  0  0  0  0  0  0  0  0  0
   48.7419   29.3943   34.1213 H   0  0  0  0  0  0  0  0  0  0  0  0
   47.2028   30.3509   33.1688 H   0  0  0  0  0  0  0  0  0  0  0  0
   46.0730   29.7469   34.4741 H   0  0  0  0  0  0  0  0  0  0  0  0
   46.7389   31.8036   35.7924 H   0  0  0  0  0  0  0  0  0  0  0  0
   47.4393   32.3981   34.1851 H   0  0  0  0  0  0  0  0  0  0  0  0
   45.0481   31.8175   33.3927 H   0  0  0  0  0  0  0  0  0  0  0  0
   44.7375   32.2240   35.1805 H   0  0  0  0  0  0  0  0  0  0  0  0
   43.7850   34.5130   34.9820 H   0  0  0  0  0  0  0  0  0  0  0  0
  1  2  1  0
  2  3  1  0
  3  4  1  0
  4  5  1  0
  5  6  1  0
  6  7  1  0
  7  8  1  0
  8  9  1  0
  9 10  1  0
 10 11  2  0
 10 12  1  0
  1 13  1  0
  1 14  1  0
  1 15  1  0
  2 16  1  0
  2 17  1  0
  3 18  1  0
  3 19  1  0
  4 20  1  0
  4 21  1  0
  5 22  1  0
  5 23  1  0
  6 24  1  0
  6 25  1  0
  7 26  1  0
  7 27  1  0
  8 28  1  0
  8 29  1  0
  9 30  1  0
  9 31  1  0
 12 32  1  0
M  END
>  <meeko>  (13) 
{"is_sidechain": [false], "free_energy": -4.151, "intermolecular_energy": -6.302, "internal_energy": -0.515}

$$$$
DKA_neutral_redock_run01
     RDKit          3D

 32 31  0  0  0  0  0  0  0  0999 V2000
   47.8030   37.9740   26.3240 C   0  0  0  0  0  0  0  0  0  0  0  0
   47.5410   36.5630   26.4360 C   0  0  0  0  0  0  0  0  0  0  0  0
   47.4390   35.9140   27.6670 C   0  0  0  0  0  0  0  0  0  0  0  0
   47.6740   36.6340   28.9170 C   0  0  0  0  0  0  0  0  0  0  0  0
   48.8560   36.1690   29.6660 C   0  0  0  0  0  0  0  0  0  0  0  0
   49.0720   34.8100   30.0030 C   0  0  0  0  0  0  0  0  0  0  0  0
   48.5910   34.2200   31.2640 C   0  0  0  0  0  0  0  0  0  0  0  0
   48.3050   35.2550   32.3630 C   0  0  0  0  0  0  0  0  0  0  0  0
   46.9070   35.3470   32.8400 C   0  0  0  0  0  0  0  0  0  0  0  0
   46.2940   36.7360   32.9610 C   0  0  0  0  0  0  0  0  0  0  0  0
   45.1090   36.9210   32.5790 O   0  0  0  0  0  0  0  0  0  0  0  0
   46.9830   37.6570   33.4670 O   0  0  0  0  0  0  0  0  0  0  0  0
   47.8845   38.4127   27.3294 H   0  0  0  0  0  0  0  0  0  0  0  0
   48.7454   38.1298   25.7785 H   0  0  0  0  0  0  0  0  0  0  0  0
   46.9793   38.4577   25.7785 H   0  0  0  0  0  0  0  0  0  0  0  0
   46.5863   36.3877   25.9185 H   0  0  0  0  0  0  0  0  0  0  0  0
   48.4663   36.1293   26.0289 H   0  0  0  0  0  0  0  0  0  0  0  0
   46.4170   35.5112   27.7250 H   0  0  0  0  0  0  0  0  0  0  0  0
   48.2764   35.2014   27.6360 H   0  0  0  0  0  0  0  0  0  0  0  0
   47.8115   37.6996   28.6814 H   0  0  0  0  0  0  0  0  0  0  0  0
   46.7994   36.4504   29.5583 H   0  0  0  0  0  0  0  0  0  0  0  0
   49.7302   36.4766   29.0734 H   0  0  0  0  0  0  0  0  0  0  0  0
   48.6778   36.6148   30.6557 H   0  0  0  0  0  0  0  0  0  0  0  0
   48.6150   34.2190   29.1956 H   0  0  0  0  0  0  0  0  0  0  0  0
   50.1626   34.7839   30.1441 H   0  0  0  0  0  0  0  0  0  0  0  0
   47.6621   33.6684   31.0568 H   0  0  0  0  0  0  0  0  0  0  0  0
   49.3932   33.5675   31.6391 H   0  0  0  0  0  0  0  0  0  0  0  0
   48.9370   35.0061   33.2282 H   0  0  0  0  0  0  0  0  0  0  0  0
   48.5194   36.2315   31.9042 H   0  0  0  0  0  0  0  0  0  0  0  0
   46.2822   34.7711   32.1415 H   0  0  0  0  0  0  0  0  0  0  0  0
   46.9374   34.9640   33.8707 H   0  0  0  0  0  0  0  0  0  0  0  0
   46.5680   38.2950   34.1000 H   0  0  0  0  0  0  0  0  0  0  0  0
  1  2  1  0
  2  3  1  0
  3  4  1  0
  4  5  1  0
  5  6  1  0
  6  7  1  0
  7  8  1  0
  8  9  1  0
  9 10  1  0
 10 11  2  0
 10 12  1  0
  1 13  1  0
  1 14  1  0
  1 15  1  0
  2 16  1  0
  2 17  1  0
  3 18  1  0
  3 19  1  0
  4 20  1  0
  4 21  1  0
  5 22  1  0
  5 23  1  0
  6 24  1  0
  6 25  1  0
  7 26  1  0
  7 27  1  0
  8 28  1  0
  8 29  1  0
  9 30  1  0
  9 31  1  0
 12 32  1  0
M  END
>  <meeko>  (14) 
{"is_sidechain": [false], "free_energy": -4.147, "intermolecular_energy": -6.264, "internal_energy": -0.546}

$$$$
DKA_neutral_redock_run01
     RDKit          3D

 32 31  0  0  0  0  0  0  0  0999 V2000
   51.8440   32.4630   25.4820 C   0  0  0  0  0  0  0  0  0  0  0  0
   50.4810   32.8480   25.2260 C   0  0  0  0  0  0  0  0  0  0  0  0
   49.5630   31.9950   24.6120 C   0  0  0  0  0  0  0  0  0  0  0  0
   48.5320   31.3140   25.3930 C   0  0  0  0  0  0  0  0  0  0  0  0
   47.3130   32.1150   25.6070 C   0  0  0  0  0  0  0  0  0  0  0  0
   46.9510   32.6490   26.8680 C   0  0  0  0  0  0  0  0  0  0  0  0
   47.0830   34.0810   27.1890 C   0  0  0  0  0  0  0  0  0  0  0  0
   47.6360   34.9270   26.0330 C   0  0  0  0  0  0  0  0  0  0  0  0
   46.8840   36.1550   25.6910 C   0  0  0  0  0  0  0  0  0  0  0  0
   47.3470   37.4630   26.3190 C   0  0  0  0  0  0  0  0  0  0  0  0
   47.1560   37.6580   27.5480 O   0  0  0  0  0  0  0  0  0  0  0  0
   47.9340   38.3050   25.5930 O   0  0  0  0  0  0  0  0  0  0  0  0
   52.0137   32.4151   26.5678 H   0  0  0  0  0  0  0  0  0  0  0  0
   52.0359   31.4755   25.0369 H   0  0  0  0  0  0  0  0  0  0  0  0
   52.5241   33.2042   25.0369 H   0  0  0  0  0  0  0  0  0  0  0  0
   50.0488   33.1092   26.2032 H   0  0  0  0  0  0  0  0  0  0  0  0
   50.6075   33.6298   24.4626 H   0  0  0  0  0  0  0  0  0  0  0  0
   49.0371   32.5942   23.8541 H   0  0  0  0  0  0  0  0  0  0  0  0
   50.1961   31.1637   24.2683 H   0  0  0  0  0  0  0  0  0  0  0  0
   48.2509   30.3913   24.8642 H   0  0  0  0  0  0  0  0  0  0  0  0
   48.9627   31.1194   26.3863 H   0  0  0  0  0  0  0  0  0  0  0  0
   47.3922   32.9748   24.9255 H   0  0  0  0  0  0  0  0  0  0  0  0
   46.5259   31.3621   25.4534 H   0  0  0  0  0  0  0  0  0  0  0  0
   45.8891   32.4005   27.0115 H   0  0  0  0  0  0  0  0  0  0  0  0
   47.7069   32.1993   27.5286 H   0  0  0  0  0  0  0  0  0  0  0  0
   46.0896   34.4690   27.4584 H   0  0  0  0  0  0  0  0  0  0  0  0
   47.8039   34.1587   28.0162 H   0  0  0  0  0  0  0  0  0  0  0  0
   48.6605   35.2264   26.2991 H   0  0  0  0  0  0  0  0  0  0  0  0
   47.5624   34.2848   25.1429 H   0  0  0  0  0  0  0  0  0  0  0  0
   46.9341   36.2783   24.5991 H   0  0  0  0  0  0  0  0  0  0  0  0
   45.8769   35.9892   26.1011 H   0  0  0  0  0  0  0  0  0  0  0  0
   47.4080   38.9570   25.0650 H   0  0  0  0  0  0  0  0  0  0  0  0
  1  2  1  0
  2  3  1  0
  3  4  1  0
  4  5  1  0
  5  6  1  0
  6  7  1  0
  7  8  1  0
  8  9  1  0
  9 10  1  0
 10 11  2  0
 10 12  1  0
  1 13  1  0
  1 14  1  0
  1 15  1  0
  2 16  1  0
  2 17  1  0
  3 18  1  0
  3 19  1  0
  4 20  1  0
  4 21  1  0
  5 22  1  0
  5 23  1  0
  6 24  1  0
  6 25  1  0
  7 26  1  0
  7 27  1  0
  8 28  1  0
  8 29  1  0
  9 30  1  0
  9 31  1  0
 12 32  1  0
M  END
>  <meeko>  (15) 
{"is_sidechain": [false], "free_energy": -4.105, "intermolecular_energy": -6.096, "internal_energy": -0.651}

$$$$
DKA_neutral_redock_run01
     RDKit          3D

 32 31  0  0  0  0  0  0  0  0999 V2000
   54.4560   32.1250   24.4330 C   0  0  0  0  0  0  0  0  0  0  0  0
   53.3630   31.9300   25.3490 C   0  0  0  0  0  0  0  0  0  0  0  0
   52.0440   31.7720   24.9210 C   0  0  0  0  0  0  0  0  0  0  0  0
   50.9570   32.5210   25.5470 C   0  0  0  0  0  0  0  0  0  0  0  0
   49.6510   32.3520   24.8850 C   0  0  0  0  0  0  0  0  0  0  0  0
   48.5220   33.1530   25.1850 C   0  0  0  0  0  0  0  0  0  0  0  0
   48.6370   34.4780   25.8190 C   0  0  0  0  0  0  0  0  0  0  0  0
   47.2880   35.0870   26.2310 C   0  0  0  0  0  0  0  0  0  0  0  0
   46.9980   36.4510   25.7370 C   0  0  0  0  0  0  0  0  0  0  0  0
   47.7880   37.6040   26.3430 C   0  0  0  0  0  0  0  0  0  0  0  0
   47.9880   37.6270   27.5860 O   0  0  0  0  0  0  0  0  0  0  0  0
   48.2440   38.4910   25.5770 O   0  0  0  0  0  0  0  0  0  0  0  0
   55.3842   32.2906   24.9996 H   0  0  0  0  0  0  0  0  0  0  0  0
   54.5673   31.2325   23.7997 H   0  0  0  0  0  0  0  0  0  0  0  0
   54.2518   33.0009   23.7997 H   0  0  0  0  0  0  0  0  0  0  0  0
   53.6067   31.0265   25.9271 H   0  0  0  0  0  0  0  0  0  0  0  0
   53.3193   32.9042   25.8579 H   0  0  0  0  0  0  0  0  0  0  0  0
   52.0283   32.0317   23.8522 H   0  0  0  0  0  0  0  0  0  0  0  0
   51.8190   30.7336   25.2059 H   0  0  0  0  0  0  0  0  0  0  0  0
   50.8617   32.1849   26.5901 H   0  0  0  0  0  0  0  0  0  0  0  0
   51.2182   33.5865   25.4664 H   0  0  0  0  0  0  0  0  0  0  0  0
   49.8380   32.4837   23.8090 H   0  0  0  0  0  0  0  0  0  0  0  0
   49.3340   31.3729   25.2733 H   0  0  0  0  0  0  0  0  0  0  0  0
   48.0004   33.3155   24.2302 H   0  0  0  0  0  0  0  0  0  0  0  0
   48.0332   32.5661   25.9766 H   0  0  0  0  0  0  0  0  0  0  0  0
   49.2621   34.3790   26.7187 H   0  0  0  0  0  0  0  0  0  0  0  0
   49.0789   35.1536   25.0718 H   0  0  0  0  0  0  0  0  0  0  0  0
   46.4944   34.4219   25.8597 H   0  0  0  0  0  0  0  0  0  0  0  0
   47.3340   35.1791   27.3262 H   0  0  0  0  0  0  0  0  0  0  0  0
   47.1878   36.4558   24.6535 H   0  0  0  0  0  0  0  0  0  0  0  0
   45.9560   36.6399   26.0345 H   0  0  0  0  0  0  0  0  0  0  0  0
   47.6910   38.8310   24.8290 H   0  0  0  0  0  0  0  0  0  0  0  0
  1  2  1  0
  2  3  1  0
  3  4  1  0
  4  5  1  0
  5  6  1  0
  6  7  1  0
  7  8  1  0
  8  9  1  0
  9 10  1  0
 10 11  2  0
 10 12  1  0
  1 13  1  0
  1 14  1  0
  1 15  1  0
  2 16  1  0
  2 17  1  0
  3 18  1  0
  3 19  1  0
  4 20  1  0
  4 21  1  0
  5 22  1  0
  5 23  1  0
  6 24  1  0
  6 25  1  0
  7 26  1  0
  7 27  1  0
  8 28  1  0
  8 29  1  0
  9 30  1  0
  9 31  1  0
 12 32  1  0
M  END
>  <meeko>  (16) 
{"is_sidechain": [false], "free_energy": -4.041, "intermolecular_energy": -6.392, "internal_energy": -0.259}

$$$$
DKA_neutral_redock_run01
     RDKit          3D

 32 31  0  0  0  0  0  0  0  0999 V2000
   48.0340   38.2050   26.4600 C   0  0  0  0  0  0  0  0  0  0  0  0
   48.0380   36.8740   25.9130 C   0  0  0  0  0  0  0  0  0  0  0  0
   47.0460   35.9380   26.2080 C   0  0  0  0  0  0  0  0  0  0  0  0
   46.4230   35.1460   25.1510 C   0  0  0  0  0  0  0  0  0  0  0  0
   46.9230   33.7620   25.0620 C   0  0  0  0  0  0  0  0  0  0  0  0
   47.3980   33.0380   26.1830 C   0  0  0  0  0  0  0  0  0  0  0  0
   48.7400   32.4310   26.2240 C   0  0  0  0  0  0  0  0  0  0  0  0
   49.7110   33.0040   25.1810 C   0  0  0  0  0  0  0  0  0  0  0  0
   50.9600   32.2450   24.9510 C   0  0  0  0  0  0  0  0  0  0  0  0
   52.1350   32.5200   25.8810 C   0  0  0  0  0  0  0  0  0  0  0  0
   52.1810   31.9470   27.0010 O   0  0  0  0  0  0  0  0  0  0  0  0
   53.0440   33.2950   25.4900 O   0  0  0  0  0  0  0  0  0  0  0  0
   48.0342   38.1499   27.5586 H   0  0  0  0  0  0  0  0  0  0  0  0
   48.9305   38.7440   26.1198 H   0  0  0  0  0  0  0  0  0  0  0  0
   47.1342   38.7386   26.1198 H   0  0  0  0  0  0  0  0  0  0  0  0
   48.0295   36.9934   24.8195 H   0  0  0  0  0  0  0  0  0  0  0  0
   48.9175   36.4318   26.4038 H   0  0  0  0  0  0  0  0  0  0  0  0
   47.4913   35.2221   26.9145 H   0  0  0  0  0  0  0  0  0  0  0  0
   46.2158   36.5674   26.5609 H   0  0  0  0  0  0  0  0  0  0  0  0
   45.3397   35.1106   25.3387 H   0  0  0  0  0  0  0  0  0  0  0  0
   46.6732   35.6356   24.1983 H   0  0  0  0  0  0  0  0  0  0  0  0
   46.0961   33.1676   24.6461 H   0  0  0  0  0  0  0  0  0  0  0  0
   47.8477   33.8999   24.4823 H   0  0  0  0  0  0  0  0  0  0  0  0
   47.3500   33.7305   27.0363 H   0  0  0  0  0  0  0  0  0  0  0  0
   46.7496   32.1495   26.1682 H   0  0  0  0  0  0  0  0  0  0  0  0
   49.1663   32.5989   27.2240 H   0  0  0  0  0  0  0  0  0  0  0  0
   48.6158   31.3626   25.9936 H   0  0  0  0  0  0  0  0  0  0  0  0
   49.1747   33.0624   24.2224 H   0  0  0  0  0  0  0  0  0  0  0  0
   50.0322   33.9748   25.5864 H   0  0  0  0  0  0  0  0  0  0  0  0
   50.7158   31.1759   25.0369 H   0  0  0  0  0  0  0  0  0  0  0  0
   51.3065   32.5720   23.9596 H   0  0  0  0  0  0  0  0  0  0  0  0
   53.9590   32.9480   25.3400 H   0  0  0  0  0  0  0  0  0  0  0  0
  1  2  1  0
  2  3  1  0
  3  4  1  0
  4  5  1  0
  5  6  1  0
  6  7  1  0
  7  8  1  0
  8  9  1  0
  9 10  1  0
 10 11  2  0
 10 12  1  0
  1 13  1  0
  1 14  1  0
  1 15  1  0
  2 16  1  0
  2 17  1  0
  3 18  1  0
  3 19  1  0
  4 20  1  0
  4 21  1  0
  5 22  1  0
  5 23  1  0
  6 24  1  0
  6 25  1  0
  7 26  1  0
  7 27  1  0
  8 28  1  0
  8 29  1  0
  9 30  1  0
  9 31  1  0
 12 32  1  0
M  END
>  <meeko>  (17) 
{"is_sidechain": [false], "free_energy": -4.026, "intermolecular_energy": -6.058, "internal_energy": -0.57}

$$$$
DKA_neutral_redock_run01
     RDKit          3D

 32 31  0  0  0  0  0  0  0  0999 V2000
   47.1140   36.3660   25.8090 C   0  0  0  0  0  0  0  0  0  0  0  0
   47.2840   37.5070   26.6700 C   0  0  0  0  0  0  0  0  0  0  0  0
   48.0780   37.4700   27.8170 C   0  0  0  0  0  0  0  0  0  0  0  0
   47.5120   37.0940   29.1100 C   0  0  0  0  0  0  0  0  0  0  0  0
   48.0350   35.8260   29.6500 C   0  0  0  0  0  0  0  0  0  0  0  0
   48.4560   35.6730   30.9940 C   0  0  0  0  0  0  0  0  0  0  0  0
   47.5850   35.1020   32.0370 C   0  0  0  0  0  0  0  0  0  0  0  0
   47.4070   33.5810   31.9310 C   0  0  0  0  0  0  0  0  0  0  0  0
   46.3380   32.9800   32.7600 C   0  0  0  0  0  0  0  0  0  0  0  0
   45.5760   33.9000   33.7040 C   0  0  0  0  0  0  0  0  0  0  0  0
   44.5770   34.5350   33.2740 O   0  0  0  0  0  0  0  0  0  0  0  0
   45.9510   33.9800   34.9010 O   0  0  0  0  0  0  0  0  0  0  0  0
   46.9793   35.4618   26.4208 H   0  0  0  0  0  0  0  0  0  0  0  0
   46.2281   36.5145   25.1741 H   0  0  0  0  0  0  0  0  0  0  0  0
   48.0047   36.2498   25.1741 H   0  0  0  0  0  0  0  0  0  0  0  0
   47.6971   38.3072   26.0384 H   0  0  0  0  0  0  0  0  0  0  0  0
   46.2765   37.6188   27.0972 H   0  0  0  0  0  0  0  0  0  0  0  0
   48.8910   36.7579   27.6121 H   0  0  0  0  0  0  0  0  0  0  0  0
   48.3399   38.5281   27.9651 H   0  0  0  0  0  0  0  0  0  0  0  0
   47.7351   37.8945   29.8307 H   0  0  0  0  0  0  0  0  0  0  0  0
   46.4325   36.9512   28.9543 H   0  0  0  0  0  0  0  0  0  0  0  0
   47.2410   35.0806   29.4949 H   0  0  0  0  0  0  0  0  0  0  0  0
   48.9889   35.7347   29.1099 H   0  0  0  0  0  0  0  0  0  0  0  0
   49.3525   35.0364   30.9626 H   0  0  0  0  0  0  0  0  0  0  0  0
   48.5451   36.7190   31.3226 H   0  0  0  0  0  0  0  0  0  0  0  0
   48.0233   35.3323   33.0193 H   0  0  0  0  0  0  0  0  0  0  0  0
   46.5896   35.5511   31.9045 H   0  0  0  0  0  0  0  0  0  0  0  0
   47.1878   33.3430   30.8797 H   0  0  0  0  0  0  0  0  0  0  0  0
   48.3455   33.1517   32.3116 H   0  0  0  0  0  0  0  0  0  0  0  0
   45.6040   32.5304   32.0750 H   0  0  0  0  0  0  0  0  0  0  0  0
   46.8614   32.2734   33.4209 H   0  0  0  0  0  0  0  0  0  0  0  0
   45.5860   33.3550   35.5770 H   0  0  0  0  0  0  0  0  0  0  0  0
  1  2  1  0
  2  3  1  0
  3  4  1  0
  4  5  1  0
  5  6  1  0
  6  7  1  0
  7  8  1  0
  8  9  1  0
  9 10  1  0
 10 11  2  0
 10 12  1  0
  1 13  1  0
  1 14  1  0
  1 15  1  0
  2 16  1  0
  2 17  1  0
  3 18  1  0
  3 19  1  0
  4 20  1  0
  4 21  1  0
  5 22  1  0
  5 23  1  0
  6 24  1  0
  6 25  1  0
  7 26  1  0
  7 27  1  0
  8 28  1  0
  8 29  1  0
  9 30  1  0
  9 31  1  0
 12 32  1  0
M  END
>  <meeko>  (18) 
{"is_sidechain": [false], "free_energy": -4.02, "intermolecular_energy": -6.38, "internal_energy": -0.24}

$$$$
DKA_neutral_redock_run01
     RDKit          3D

 32 31  0  0  0  0  0  0  0  0999 V2000
   48.2710   28.6040   36.6280 C   0  0  0  0  0  0  0  0  0  0  0  0
   48.4380   27.7290   35.4990 C   0  0  0  0  0  0  0  0  0  0  0  0
   47.3780   27.0110   34.9420 C   0  0  0  0  0  0  0  0  0  0  0  0
   47.1400   27.0210   33.5000 C   0  0  0  0  0  0  0  0  0  0  0  0
   46.0380   27.9040   33.0780 C   0  0  0  0  0  0  0  0  0  0  0  0
   46.2480   29.1550   32.4470 C   0  0  0  0  0  0  0  0  0  0  0  0
   47.0980   30.2060   33.0340 C   0  0  0  0  0  0  0  0  0  0  0  0
   46.4330   30.9680   34.1900 C   0  0  0  0  0  0  0  0  0  0  0  0
   45.2850   31.8320   33.8390 C   0  0  0  0  0  0  0  0  0  0  0  0
   45.4280   33.3290   34.0840 C   0  0  0  0  0  0  0  0  0  0  0  0
   44.8000   34.1370   33.3510 O   0  0  0  0  0  0  0  0  0  0  0  0
   46.1530   33.7170   35.0360 O   0  0  0  0  0  0  0  0  0  0  0  0
   48.3811   28.0274   37.5582 H   0  0  0  0  0  0  0  0  0  0  0  0
   49.0343   29.3953   36.5947 H   0  0  0  0  0  0  0  0  0  0  0  0
   47.2699   29.0586   36.5947 H   0  0  0  0  0  0  0  0  0  0  0  0
   48.8447   28.3511   34.6881 H   0  0  0  0  0  0  0  0  0  0  0  0
   49.0543   26.9246   35.9269 H   0  0  0  0  0  0  0  0  0  0  0  0
   47.5279   25.9593   35.2274 H   0  0  0  0  0  0  0  0  0  0  0  0
   46.4954   27.5350   35.3375 H   0  0  0  0  0  0  0  0  0  0  0  0
   48.0611   27.3552   33.0002 H   0  0  0  0  0  0  0  0  0  0  0  0
   46.8515   25.9974   33.2191 H   0  0  0  0  0  0  0  0  0  0  0  0
   45.4260   27.3125   32.3812 H   0  0  0  0  0  0  0  0  0  0  0  0
   45.6224   28.2147   34.0479 H   0  0  0  0  0  0  0  0  0  0  0  0
   46.6780   28.9306   31.4597 H   0  0  0  0  0  0  0  0  0  0  0  0
   45.2490   29.6107   32.5126 H   0  0  0  0  0  0  0  0  0  0  0  0
   48.0183   29.7368   33.4120 H   0  0  0  0  0  0  0  0  0  0  0  0
   47.2953   30.9396   32.2385 H   0  0  0  0  0  0  0  0  0  0  0  0
   46.0806   30.2250   34.9206 H   0  0  0  0  0  0  0  0  0  0  0  0
   47.2061   31.6523   34.5695 H   0  0  0  0  0  0  0  0  0  0  0  0
   45.0833   31.6918   32.7668 H   0  0  0  0  0  0  0  0  0  0  0  0
   44.4786   31.5139   34.5162 H   0  0  0  0  0  0  0  0  0  0  0  0
   46.9450   33.1860   35.3030 H   0  0  0  0  0  0  0  0  0  0  0  0
  1  2  1  0
  2  3  1  0
  3  4  1  0
  4  5  1  0
  5  6  1  0
  6  7  1  0
  7  8  1  0
  8  9  1  0
  9 10  1  0
 10 11  2  0
 10 12  1  0
  1 13  1  0
  1 14  1  0
  1 15  1  0
  2 16  1  0
  2 17  1  0
  3 18  1  0
  3 19  1  0
  4 20  1  0
  4 21  1  0
  5 22  1  0
  5 23  1  0
  6 24  1  0
  6 25  1  0
  7 26  1  0
  7 27  1  0
  8 28  1  0
  8 29  1  0
  9 30  1  0
  9 31  1  0
 12 32  1  0
M  END
>  <meeko>  (19) 
{"is_sidechain": [false], "free_energy": -3.987, "intermolecular_energy": -5.8, "internal_energy": -0.771}

$$$$
DKA_neutral_redock_run01
     RDKit          3D

 32 31  0  0  0  0  0  0  0  0999 V2000
   46.5630   32.5830   25.8770 C   0  0  0  0  0  0  0  0  0  0  0  0
   46.9420   32.4340   27.2570 C   0  0  0  0  0  0  0  0  0  0  0  0
   47.0080   33.5140   28.1380 C   0  0  0  0  0  0  0  0  0  0  0  0
   48.1430   33.6760   29.0440 C   0  0  0  0  0  0  0  0  0  0  0  0
   48.0580   34.8690   29.9070 C   0  0  0  0  0  0  0  0  0  0  0  0
   48.5040   36.1500   29.5000 C   0  0  0  0  0  0  0  0  0  0  0  0
   47.5870   37.1780   28.9760 C   0  0  0  0  0  0  0  0  0  0  0  0
   48.0500   37.8040   27.6520 C   0  0  0  0  0  0  0  0  0  0  0  0
   47.1880   37.5710   26.4720 C   0  0  0  0  0  0  0  0  0  0  0  0
   47.3970   36.2810   25.6900 C   0  0  0  0  0  0  0  0  0  0  0  0
   48.4350   35.5980   25.8930 O   0  0  0  0  0  0  0  0  0  0  0  0
   46.5070   35.9170   24.8790 O   0  0  0  0  0  0  0  0  0  0  0  0
   45.5407   32.9849   25.8189 H   0  0  0  0  0  0  0  0  0  0  0  0
   47.2579   33.2749   25.3786 H   0  0  0  0  0  0  0  0  0  0  0  0
   46.6007   31.6031   25.3786 H   0  0  0  0  0  0  0  0  0  0  0  0
   46.2242   31.7254   27.6959 H   0  0  0  0  0  0  0  0  0  0  0  0
   48.0010   32.1495   27.1701 H   0  0  0  0  0  0  0  0  0  0  0  0
   46.9673   34.4240   27.5213 H   0  0  0  0  0  0  0  0  0  0  0  0
   46.1737   33.3163   28.8271 H   0  0  0  0  0  0  0  0  0  0  0  0
   48.2004   32.7865   29.6886 H   0  0  0  0  0  0  0  0  0  0  0  0
   49.0363   33.8023   28.4146 H   0  0  0  0  0  0  0  0  0  0  0  0
   46.9936   34.9850   30.1593 H   0  0  0  0  0  0  0  0  0  0  0  0
   48.7861   34.6229   30.6940 H   0  0  0  0  0  0  0  0  0  0  0  0
   48.9936   36.5963   30.3781 H   0  0  0  0  0  0  0  0  0  0  0  0
   49.1036   35.9079   28.6102 H   0  0  0  0  0  0  0  0  0  0  0  0
   46.6022   36.7150   28.8152 H   0  0  0  0  0  0  0  0  0  0  0  0
   47.5547   37.9879   29.7196 H   0  0  0  0  0  0  0  0  0  0  0  0
   48.1214   38.8911   27.8038 H   0  0  0  0  0  0  0  0  0  0  0  0
   49.0045   37.3107   27.4160 H   0  0  0  0  0  0  0  0  0  0  0  0
   46.1445   37.5796   26.8199 H   0  0  0  0  0  0  0  0  0  0  0  0
   47.4568   38.3716   25.7672 H   0  0  0  0  0  0  0  0  0  0  0  0
   46.3560   36.4320   24.0470 H   0  0  0  0  0  0  0  0  0  0  0  0
  1  2  1  0
  2  3  1  0
  3  4  1  0
  4  5  1  0
  5  6  1  0
  6  7  1  0
  7  8  1  0
  8  9  1  0
  9 10  1  0
 10 11  2  0
 10 12  1  0
  1 13  1  0
  1 14  1  0
  1 15  1  0
  2 16  1  0
  2 17  1  0
  3 18  1  0
  3 19  1  0
  4 20  1  0
  4 21  1  0
  5 22  1  0
  5 23  1  0
  6 24  1  0
  6 25  1  0
  7 26  1  0
  7 27  1  0
  8 28  1  0
  8 29  1  0
  9 30  1  0
  9 31  1  0
 12 32  1  0
M  END
>  <meeko>  (20) 
{"is_sidechain": [false], "free_energy": -3.977, "intermolecular_energy": -5.842, "internal_energy": -0.714}

$$$$
