DKA_neutral_focused_run01
     RDKit          3D

 32 31  0  0  0  0  0  0  0  0999 V2000
   48.9320   32.6940   24.9680 C   0  0  0  0  0  0  0  0  0  0  0  0
   48.4210   33.9020   25.5610 C   0  0  0  0  0  0  0  0  0  0  0  0
   47.1180   34.3520   25.3460 C   0  0  0  0  0  0  0  0  0  0  0  0
   46.7630   35.7530   25.5560 C   0  0  0  0  0  0  0  0  0  0  0  0
   47.9120   36.6260   25.8610 C   0  0  0  0  0  0  0  0  0  0  0  0
   47.7790   37.8870   26.4920 C   0  0  0  0  0  0  0  0  0  0  0  0
   48.2270   38.1330   27.8730 C   0  0  0  0  0  0  0  0  0  0  0  0
   47.6280   37.1620   28.9010 C   0  0  0  0  0  0  0  0  0  0  0  0
   48.5550   36.1750   29.4990 C   0  0  0  0  0  0  0  0  0  0  0  0
   48.3290   34.7050   29.1680 C   0  0  0  0  0  0  0  0  0  0  0  0
   47.1600   34.2960   28.9460 O   0  0  0  0  0  0  0  0  0  0  0  0
   49.3270   33.9430   29.0990 O   0  0  0  0  0  0  0  0  0  0  0  0
   49.2286   31.9928   25.7619 H   0  0  0  0  0  0  0  0  0  0  0  0
   48.1518   32.2331   24.3444 H   0  0  0  0  0  0  0  0  0  0  0  0
   49.8061   32.9329   24.3444 H   0  0  0  0  0  0  0  0  0  0  0  0
   48.5243   33.7751   26.6488 H   0  0  0  0  0  0  0  0  0  0  0  0
   49.0126   34.6728   25.0453 H   0  0  0  0  0  0  0  0  0  0  0  0
   46.8762   34.1216   24.2979 H   0  0  0  0  0  0  0  0  0  0  0  0
   46.5504   33.8371   26.1351 H   0  0  0  0  0  0  0  0  0  0  0  0
   46.2778   36.1271   24.6424 H   0  0  0  0  0  0  0  0  0  0  0  0
   46.0993   35.7842   26.4327 H   0  0  0  0  0  0  0  0  0  0  0  0
   48.5791   36.0342   26.5050 H   0  0  0  0  0  0  0  0  0  0  0  0
   48.2382   36.9192   24.8522 H   0  0  0  0  0  0  0  0  0  0  0  0
   48.3263   38.6031   25.8614 H   0  0  0  0  0  0  0  0  0  0  0  0
   46.6870   37.9751   26.5907 H   0  0  0  0  0  0  0  0  0  0  0  0
   49.3225   38.0388   27.9042 H   0  0  0  0  0  0  0  0  0  0  0  0
   47.8833   39.1415   28.1466 H   0  0  0  0  0  0  0  0  0  0  0  0
   47.2056   37.7622   29.7204 H   0  0  0  0  0  0  0  0  0  0  0  0
   46.8911   36.5663   28.3422 H   0  0  0  0  0  0  0  0  0  0  0  0
   49.5711   36.4347   29.1673 H   0  0  0  0  0  0  0  0  0  0  0  0
   48.3798   36.2477   30.5825 H   0  0  0  0  0  0  0  0  0  0  0  0
   49.2430   32.9920   29.3620 H   0  0  0  0  0  0  0  0  0  0  0  0
  1  2  1  0
  2  3  1  0
  3  4  1  0
  4  5  1  0
  5  6  1  0
  6  7  1  0
  7  8  1  0
  8  9  1  0
  9 10  1  0
 10 11  2  0
 10 12  1  0
  1 13  1  0
  1 14  1  0
  1 15  1  0
  2 16  1  0
  2 17  1  0
  3 18  1  0
  3 19  1  0
  4 20  1  0
  4 21  1  0
  5 22  1  0
  5 23  1  0
  6 24  1  0
  6 25  1  0
  7 26  1  0
  7 27  1  0
  8 28  1  0
  8 29  1  0
  9 30  1  0
  9 31  1  0
 12 32  1  0
M  END
>  <meeko>  (1) 
{"is_sidechain": [false], "free_energy": -4.689, "intermolecular_energy": -7.019, "internal_energy": -0.809}

$$$$
DKA_neutral_focused_run01
     RDKit          3D

 32 31  0  0  0  0  0  0  0  0999 V2000
   46.8090   34.5270   25.2190 C   0  0  0  0  0  0  0  0  0  0  0  0
   46.8040   35.9290   25.5410 C   0  0  0  0  0  0  0  0  0  0  0  0
   47.9580   36.6150   25.9230 C   0  0  0  0  0  0  0  0  0  0  0  0
   47.8830   37.9750   26.4520 C   0  0  0  0  0  0  0  0  0  0  0  0
   48.2340   38.0850   27.8800 C   0  0  0  0  0  0  0  0  0  0  0  0
   47.7570   37.1860   28.8650 C   0  0  0  0  0  0  0  0  0  0  0  0
   48.6360   36.2260   29.5550 C   0  0  0  0  0  0  0  0  0  0  0  0
   47.9040   35.3270   30.5620 C   0  0  0  0  0  0  0  0  0  0  0  0
   48.0900   35.6500   31.9950 C   0  0  0  0  0  0  0  0  0  0  0  0
   46.9070   36.2500   32.7420 C   0  0  0  0  0  0  0  0  0  0  0  0
   45.8100   35.6330   32.7570 O   0  0  0  0  0  0  0  0  0  0  0  0
   47.0670   37.3400   33.3490 O   0  0  0  0  0  0  0  0  0  0  0  0
   46.8111   33.9375   26.1477 H   0  0  0  0  0  0  0  0  0  0  0  0
   45.9117   34.2825   24.6315 H   0  0  0  0  0  0  0  0  0  0  0  0
   47.7080   34.2889   24.6315 H   0  0  0  0  0  0  0  0  0  0  0  0
   46.4227   36.4461   24.6481 H   0  0  0  0  0  0  0  0  0  0  0  0
   46.2145   35.9449   26.4696 H   0  0  0  0  0  0  0  0  0  0  0  0
   48.4433   36.0039   26.6983 H   0  0  0  0  0  0  0  0  0  0  0  0
   48.4844   36.7551   24.9674 H   0  0  0  0  0  0  0  0  0  0  0  0
   48.5742   38.6083   25.8765 H   0  0  0  0  0  0  0  0  0  0  0  0
   46.8350   38.2953   26.3570 H   0  0  0  0  0  0  0  0  0  0  0  0
   49.3317   38.0307   27.9269 H   0  0  0  0  0  0  0  0  0  0  0  0
   47.7162   39.0137   28.1619 H   0  0  0  0  0  0  0  0  0  0  0  0
   47.3062   37.8076   29.6527 H   0  0  0  0  0  0  0  0  0  0  0  0
   47.1185   36.5176   28.2687 H   0  0  0  0  0  0  0  0  0  0  0  0
   49.1101   35.5841   28.7980 H   0  0  0  0  0  0  0  0  0  0  0  0
   49.3682   36.8158   30.1259 H   0  0  0  0  0  0  0  0  0  0  0  0
   46.8277   35.3876   30.3430 H   0  0  0  0  0  0  0  0  0  0  0  0
   48.3422   34.3266   30.4304 H   0  0  0  0  0  0  0  0  0  0  0  0
   48.3652   34.7175   32.5094 H   0  0  0  0  0  0  0  0  0  0  0  0
   48.8564   36.4390   32.0061 H   0  0  0  0  0  0  0  0  0  0  0  0
   46.5280   38.1310   33.0970 H   0  0  0  0  0  0  0  0  0  0  0  0
  1  2  1  0
  2  3  1  0
  3  4  1  0
  4  5  1  0
  5  6  1  0
  6  7  1  0
  7  8  1  0
  8  9  1  0
  9 10  1  0
 10 11  2  0
 10 12  1  0
  1 13  1  0
  1 14  1  0
  1 15  1  0
  2 16  1  0
  2 17  1  0
  3 18  1  0
  3 19  1  0
  4 20  1  0
  4 21  1  0
  5 22  1  0
  5 23  1  0
  6 24  1  0
  6 25  1  0
  7 26  1  0
  7 27  1  0
  8 28  1  0
  8 29  1  0
  9 30  1  0
  9 31  1  0
 12 32  1  0
M  END
>  <meeko>  (2) 
{"is_sidechain": [false], "free_energy": -4.657, "intermolecular_energy": -7.358, "internal_energy": -0.422}

$$$$
DKA_neutral_focused_run01
     RDKit          3D

 32 31  0  0  0  0  0  0  0  0999 V2000
   47.1900   34.0640   27.0390 C   0  0  0  0  0  0  0  0  0  0  0  0
   46.5920   34.6680   25.8780 C   0  0  0  0  0  0  0  0  0  0  0  0
   46.8580   35.9830   25.4950 C   0  0  0  0  0  0  0  0  0  0  0  0
   48.0860   36.6540   25.9160 C   0  0  0  0  0  0  0  0  0  0  0  0
   47.8640   37.8260   26.7820 C   0  0  0  0  0  0  0  0  0  0  0  0
   48.2270   37.8560   28.1500 C   0  0  0  0  0  0  0  0  0  0  0  0
   47.5270   37.0600   29.1740 C   0  0  0  0  0  0  0  0  0  0  0  0
   48.4560   36.1580   29.9990 C   0  0  0  0  0  0  0  0  0  0  0  0
   47.8290   35.3880   31.0960 C   0  0  0  0  0  0  0  0  0  0  0  0
   48.1050   35.8410   32.5240 C   0  0  0  0  0  0  0  0  0  0  0  0
   49.1980   36.4040   32.7910 O   0  0  0  0  0  0  0  0  0  0  0  0
   47.2160   35.6620   33.3950 O   0  0  0  0  0  0  0  0  0  0  0  0
   46.7536   34.5047   27.9475 H   0  0  0  0  0  0  0  0  0  0  0  0
   46.9985   32.9808   27.0285 H   0  0  0  0  0  0  0  0  0  0  0  0
   48.2750   34.2447   27.0285 H   0  0  0  0  0  0  0  0  0  0  0  0
   46.8790   34.0372   25.0237 H   0  0  0  0  0  0  0  0  0  0  0  0
   45.5349   34.7298   26.1758 H   0  0  0  0  0  0  0  0  0  0  0  0
   46.8558   35.9953   24.3951 H   0  0  0  0  0  0  0  0  0  0  0  0
   46.0777   36.5518   26.0219 H   0  0  0  0  0  0  0  0  0  0  0  0
   48.7043   35.9297   26.4665 H   0  0  0  0  0  0  0  0  0  0  0  0
   48.5758   37.0224   25.0025 H   0  0  0  0  0  0  0  0  0  0  0  0
   48.4030   38.6593   26.3075 H   0  0  0  0  0  0  0  0  0  0  0  0
   46.7661   37.8461   26.8462 H   0  0  0  0  0  0  0  0  0  0  0  0
   49.2821   37.5480   28.1926 H   0  0  0  0  0  0  0  0  0  0  0  0
   47.9492   38.8818   28.4339 H   0  0  0  0  0  0  0  0  0  0  0  0
   47.0149   37.7507   29.8601 H   0  0  0  0  0  0  0  0  0  0  0  0
   46.8268   36.3986   28.6427 H   0  0  0  0  0  0  0  0  0  0  0  0
   48.9211   35.4382   29.3094 H   0  0  0  0  0  0  0  0  0  0  0  0
   49.1622   36.8424   30.4918 H   0  0  0  0  0  0  0  0  0  0  0  0
   46.7402   35.4254   30.9437 H   0  0  0  0  0  0  0  0  0  0  0  0
   48.2811   34.3875   31.0284 H   0  0  0  0  0  0  0  0  0  0  0  0
   46.2840   35.9430   33.2160 H   0  0  0  0  0  0  0  0  0  0  0  0
  1  2  1  0
  2  3  1  0
  3  4  1  0
  4  5  1  0
  5  6  1  0
  6  7  1  0
  7  8  1  0
  8  9  1  0
  9 10  1  0
 10 11  2  0
 10 12  1  0
  1 13  1  0
  1 14  1  0
  1 15  1  0
  2 16  1  0
  2 17  1  0
  3 18  1  0
  3 19  1  0
  4 20  1  0
  4 21  1  0
  5 22  1  0
  5 23  1  0
  6 24  1  0
  6 25  1  0
  7 26  1  0
  7 27  1  0
  8 28  1  0
  8 29  1  0
  9 30  1  0
  9 31  1  0
 12 32  1  0
M  END
>  <meeko>  (3) 
{"is_sidechain": [false], "free_energy": -4.618, "intermolecular_energy": -7.007, "internal_energy": -0.715}

$$$$
DKA_neutral_focused_run01
     RDKit          3D

 32 31  0  0  0  0  0  0  0  0999 V2000
   50.4700   32.4540   25.0350 C   0  0  0  0  0  0  0  0  0  0  0  0
   49.0610   32.7470   25.0580 C   0  0  0  0  0  0  0  0  0  0  0  0
   48.5520   33.9440   25.5630 C   0  0  0  0  0  0  0  0  0  0  0  0
   47.1220   34.2380   25.5000 C   0  0  0  0  0  0  0  0  0  0  0  0
   46.7950   35.6690   25.6290 C   0  0  0  0  0  0  0  0  0  0  0  0
   47.7780   36.6730   25.8120 C   0  0  0  0  0  0  0  0  0  0  0  0
   47.5370   37.8790   26.6240 C   0  0  0  0  0  0  0  0  0  0  0  0
   48.2280   37.8510   27.9950 C   0  0  0  0  0  0  0  0  0  0  0  0
   47.5250   37.1240   29.0760 C   0  0  0  0  0  0  0  0  0  0  0  0
   48.0420   35.7400   29.4460 C   0  0  0  0  0  0  0  0  0  0  0  0
   47.3310   34.7310   29.1990 O   0  0  0  0  0  0  0  0  0  0  0  0
   49.1820   35.6410   29.9660 O   0  0  0  0  0  0  0  0  0  0  0  0
   50.8452   32.3760   26.0661 H   0  0  0  0  0  0  0  0  0  0  0  0
   50.6380   31.5017   24.5107 H   0  0  0  0  0  0  0  0  0  0  0  0
   51.0037   33.2604   24.5107 H   0  0  0  0  0  0  0  0  0  0  0  0
   48.7193   32.6861   24.0142 H   0  0  0  0  0  0  0  0  0  0  0  0
   48.6910   32.0170   25.7930 H   0  0  0  0  0  0  0  0  0  0  0  0
   48.8324   33.9797   26.6261 H   0  0  0  0  0  0  0  0  0  0  0  0
   48.9844   34.6961   24.8867 H   0  0  0  0  0  0  0  0  0  0  0  0
   46.7386   33.8821   24.5324 H   0  0  0  0  0  0  0  0  0  0  0  0
   46.6557   33.7280   26.3558 H   0  0  0  0  0  0  0  0  0  0  0  0
   46.2530   35.9397   24.7109 H   0  0  0  0  0  0  0  0  0  0  0  0
   46.2775   35.6892   26.5994 H   0  0  0  0  0  0  0  0  0  0  0  0
   48.6474   36.1709   26.2615 H   0  0  0  0  0  0  0  0  0  0  0  0
   47.8596   37.0956   24.7997 H   0  0  0  0  0  0  0  0  0  0  0  0
   47.9073   38.7521   26.0667 H   0  0  0  0  0  0  0  0  0  0  0  0
   46.4542   37.9278   26.8118 H   0  0  0  0  0  0  0  0  0  0  0  0
   49.2136   37.3809   27.8626 H   0  0  0  0  0  0  0  0  0  0  0  0
   48.2617   38.8999   28.3247 H   0  0  0  0  0  0  0  0  0  0  0  0
   47.5775   37.7478   29.9805 H   0  0  0  0  0  0  0  0  0  0  0  0
   46.5128   36.9485   28.6827 H   0  0  0  0  0  0  0  0  0  0  0  0
   49.3660   34.9240   30.6230 H   0  0  0  0  0  0  0  0  0  0  0  0
  1  2  1  0
  2  3  1  0
  3  4  1  0
  4  5  1  0
  5  6  1  0
  6  7  1  0
  7  8  1  0
  8  9  1  0
  9 10  1  0
 10 11  2  0
 10 12  1  0
  1 13  1  0
  1 14  1  0
  1 15  1  0
  2 16  1  0
  2 17  1  0
  3 18  1  0
  3 19  1  0
  4 20  1  0
  4 21  1  0
  5 22  1  0
  5 23  1  0
  6 24  1  0
  6 25  1  0
  7 26  1  0
  7 27  1  0
  8 28  1  0
  8 29  1  0
  9 30  1  0
  9 31  1  0
 12 32  1  0
M  END
>  <meeko>  (4) 
{"is_sidechain": [false], "free_energy": -4.607, "intermolecular_energy": -7.101, "internal_energy": -0.605}

$$$$
DKA_neutral_focused_run01
     RDKit          3D

 32 31  0  0  0  0  0  0  0  0999 V2000
   48.9260   33.2380   25.1580 C   0  0  0  0  0  0  0  0  0  0  0  0
   48.2010   33.8620   26.2330 C   0  0  0  0  0  0  0  0  0  0  0  0
   46.9510   34.4550   26.0490 C   0  0  0  0  0  0  0  0  0  0  0  0
   46.8270   35.7730   25.4310 C   0  0  0  0  0  0  0  0  0  0  0  0
   47.8780   36.7260   25.8320 C   0  0  0  0  0  0  0  0  0  0  0  0
   47.6470   37.7990   26.7270 C   0  0  0  0  0  0  0  0  0  0  0  0
   48.2560   37.8580   28.0670 C   0  0  0  0  0  0  0  0  0  0  0  0
   47.5390   36.9900   29.1120 C   0  0  0  0  0  0  0  0  0  0  0  0
   48.1740   35.6950   29.4460 C   0  0  0  0  0  0  0  0  0  0  0  0
   49.1410   35.6670   30.6220 C   0  0  0  0  0  0  0  0  0  0  0  0
   50.2720   35.1340   30.4770 O   0  0  0  0  0  0  0  0  0  0  0  0
   48.7900   36.2040   31.7030 O   0  0  0  0  0  0  0  0  0  0  0  0
   49.6980   32.5736   25.5735 H   0  0  0  0  0  0  0  0  0  0  0  0
   48.2312   32.6510   24.5394 H   0  0  0  0  0  0  0  0  0  0  0  0
   49.4030   34.0124   24.5394 H   0  0  0  0  0  0  0  0  0  0  0  0
   48.0608   33.0847   26.9986 H   0  0  0  0  0  0  0  0  0  0  0  0
   48.8338   34.7337   26.4558 H   0  0  0  0  0  0  0  0  0  0  0  0
   46.3645   33.7620   25.4280 H   0  0  0  0  0  0  0  0  0  0  0  0
   46.6165   34.6391   27.0806 H   0  0  0  0  0  0  0  0  0  0  0  0
   46.8718   35.6483   24.3390 H   0  0  0  0  0  0  0  0  0  0  0  0
   45.8695   36.1945   25.7710 H   0  0  0  0  0  0  0  0  0  0  0  0
   48.6783   36.1217   26.2840 H   0  0  0  0  0  0  0  0  0  0  0  0
   48.0596   37.2621   24.8888 H   0  0  0  0  0  0  0  0  0  0  0  0
   47.9734   38.7094   26.2029 H   0  0  0  0  0  0  0  0  0  0  0  0
   46.5824   37.6649   26.9693 H   0  0  0  0  0  0  0  0  0  0  0  0
   49.2989   37.5170   27.9894 H   0  0  0  0  0  0  0  0  0  0  0  0
   48.1786   38.9007   28.4087 H   0  0  0  0  0  0  0  0  0  0  0  0
   47.4675   37.5759   30.0402 H   0  0  0  0  0  0  0  0  0  0  0  0
   46.5711   36.7302   28.6586 H   0  0  0  0  0  0  0  0  0  0  0  0
   47.3676   34.9799   29.6658 H   0  0  0  0  0  0  0  0  0  0  0  0
   48.7928   35.4528   28.5694 H   0  0  0  0  0  0  0  0  0  0  0  0
   47.9280   36.6880   31.7590 H   0  0  0  0  0  0  0  0  0  0  0  0
  1  2  1  0
  2  3  1  0
  3  4  1  0
  4  5  1  0
  5  6  1  0
  6  7  1  0
  7  8  1  0
  8  9  1  0
  9 10  1  0
 10 11  2  0
 10 12  1  0
  1 13  1  0
  1 14  1  0
  1 15  1  0
  2 16  1  0
  2 17  1  0
  3 18  1  0
  3 19  1  0
  4 20  1  0
  4 21  1  0
  5 22  1  0
  5 23  1  0
  6 24  1  0
  6 25  1  0
  7 26  1  0
  7 27  1  0
  8 28  1  0
  8 29  1  0
  9 30  1  0
  9 31  1  0
 12 32  1  0
M  END
>  <meeko>  (5) 
{"is_sidechain": [false], "free_energy": -4.568, "intermolecular_energy": -6.85, "internal_energy": -0.797}

$$$$
DKA_neutral_focused_run01
     RDKit          3D

 32 31  0  0  0  0  0  0  0  0999 V2000
   46.6120   33.4640   27.3920 C   0  0  0  0  0  0  0  0  0  0  0  0
   46.1130   33.6280   26.0520 C   0  0  0  0  0  0  0  0  0  0  0  0
   46.4170   34.7430   25.2700 C   0  0  0  0  0  0  0  0  0  0  0  0
   47.5020   35.6480   25.6410 C   0  0  0  0  0  0  0  0  0  0  0  0
   47.0550   37.0010   26.0200 C   0  0  0  0  0  0  0  0  0  0  0  0
   47.9420   38.0150   26.4570 C   0  0  0  0  0  0  0  0  0  0  0  0
   48.3590   38.1500   27.8640 C   0  0  0  0  0  0  0  0  0  0  0  0
   47.5930   37.2330   28.8280 C   0  0  0  0  0  0  0  0  0  0  0  0
   48.3740   36.1580   29.4800 C   0  0  0  0  0  0  0  0  0  0  0  0
   47.8800   35.6450   30.8270 C   0  0  0  0  0  0  0  0  0  0  0  0
   47.3540   34.5040   30.8970 O   0  0  0  0  0  0  0  0  0  0  0  0
   48.0370   36.3700   31.8420 O   0  0  0  0  0  0  0  0  0  0  0  0
   45.8218   33.7237   28.1119 H   0  0  0  0  0  0  0  0  0  0  0  0
   46.9173   32.4182   27.5441 H   0  0  0  0  0  0  0  0  0  0  0  0
   47.4782   34.1247   27.5441 H   0  0  0  0  0  0  0  0  0  0  0  0
   46.4645   32.7528   25.4859 H   0  0  0  0  0  0  0  0  0  0  0  0
   45.0355   33.7627   26.2275 H   0  0  0  0  0  0  0  0  0  0  0  0
   46.6549   34.3648   24.2648 H   0  0  0  0  0  0  0  0  0  0  0  0
   45.5238   35.3737   25.3898 H   0  0  0  0  0  0  0  0  0  0  0  0
   48.0401   35.2103   26.4947 H   0  0  0  0  0  0  0  0  0  0  0  0
   48.1380   35.7621   24.7508 H   0  0  0  0  0  0  0  0  0  0  0  0
   46.5415   37.4084   25.1366 H   0  0  0  0  0  0  0  0  0  0  0  0
   46.4886   36.7945   26.9401 H   0  0  0  0  0  0  0  0  0  0  0  0
   48.8665   37.8834   25.8757 H   0  0  0  0  0  0  0  0  0  0  0  0
   47.3360   38.9218   26.3135 H   0  0  0  0  0  0  0  0  0  0  0  0
   49.4300   37.9086   27.9330 H   0  0  0  0  0  0  0  0  0  0  0  0
   48.1406   39.1852   28.1650 H   0  0  0  0  0  0  0  0  0  0  0  0
   47.1667   37.8643   29.6215 H   0  0  0  0  0  0  0  0  0  0  0  0
   46.8485   36.7147   28.2059 H   0  0  0  0  0  0  0  0  0  0  0  0
   48.3957   35.3019   28.7896 H   0  0  0  0  0  0  0  0  0  0  0  0
   49.3512   36.6144   29.6962 H   0  0  0  0  0  0  0  0  0  0  0  0
   48.8980   36.3580   32.3310 H   0  0  0  0  0  0  0  0  0  0  0  0
  1  2  1  0
  2  3  1  0
  3  4  1  0
  4  5  1  0
  5  6  1  0
  6  7  1  0
  7  8  1  0
  8  9  1  0
  9 10  1  0
 10 11  2  0
 10 12  1  0
  1 13  1  0
  1 14  1  0
  1 15  1  0
  2 16  1  0
  2 17  1  0
  3 18  1  0
  3 19  1  0
  4 20  1  0
  4 21  1  0
  5 22  1  0
  5 23  1  0
  6 24  1  0
  6 25  1  0
  7 26  1  0
  7 27  1  0
  8 28  1  0
  8 29  1  0
  9 30  1  0
  9 31  1  0
 12 32  1  0
M  END
>  <meeko>  (6) 
{"is_sidechain": [false], "free_energy": -4.56, "intermolecular_energy": -6.992, "internal_energy": -0.644}

$$$$
DKA_neutral_focused_run01
     RDKit          3D

 32 31  0  0  0  0  0  0  0  0999 V2000
   50.7050   32.9000   25.3430 C   0  0  0  0  0  0  0  0  0  0  0  0
   49.6190   32.1670   24.7490 C   0  0  0  0  0  0  0  0  0  0  0  0
   48.3030   32.2780   25.2010 C   0  0  0  0  0  0  0  0  0  0  0  0
   47.8640   33.4500   25.9550 C   0  0  0  0  0  0  0  0  0  0  0  0
   46.9540   34.3380   25.2090 C   0  0  0  0  0  0  0  0  0  0  0  0
   46.7140   35.6850   25.5770 C   0  0  0  0  0  0  0  0  0  0  0  0
   47.8030   36.6540   25.7910 C   0  0  0  0  0  0  0  0  0  0  0  0
   47.5090   37.6840   26.8920 C   0  0  0  0  0  0  0  0  0  0  0  0
   48.2420   37.5180   28.1670 C   0  0  0  0  0  0  0  0  0  0  0  0
   47.5630   36.7210   29.2730 C   0  0  0  0  0  0  0  0  0  0  0  0
   47.1750   37.3150   30.3120 O   0  0  0  0  0  0  0  0  0  0  0  0
   47.3840   35.4880   29.1030 O   0  0  0  0  0  0  0  0  0  0  0  0
   50.6269   32.8473   26.4390 H   0  0  0  0  0  0  0  0  0  0  0  0
   51.6617   32.4622   25.0221 H   0  0  0  0  0  0  0  0  0  0  0  0
   50.6568   33.9511   25.0221 H   0  0  0  0  0  0  0  0  0  0  0  0
   49.6023   32.4530   23.6870 H   0  0  0  0  0  0  0  0  0  0  0  0
   49.8665   31.1321   25.0278 H   0  0  0  0  0  0  0  0  0  0  0  0
   47.6602   32.2200   24.3103 H   0  0  0  0  0  0  0  0  0  0  0  0
   48.2332   31.4708   25.9450 H   0  0  0  0  0  0  0  0  0  0  0  0
   47.3439   33.1037   26.8603 H   0  0  0  0  0  0  0  0  0  0  0  0
   48.7657   34.0376   26.1823 H   0  0  0  0  0  0  0  0  0  0  0  0
   47.3389   34.3696   24.1790 H   0  0  0  0  0  0  0  0  0  0  0  0
   45.9776   33.8765   25.4177 H   0  0  0  0  0  0  0  0  0  0  0  0
   46.0790   36.1093   24.7853 H   0  0  0  0  0  0  0  0  0  0  0  0
   46.3102   35.5720   26.5939 H   0  0  0  0  0  0  0  0  0  0  0  0
   48.7113   36.0992   26.0688 H   0  0  0  0  0  0  0  0  0  0  0  0
   47.9225   37.2142   24.8519 H   0  0  0  0  0  0  0  0  0  0  0  0
   47.7550   38.6790   26.4926 H   0  0  0  0  0  0  0  0  0  0  0  0
   46.4483   37.5421   27.1464 H   0  0  0  0  0  0  0  0  0  0  0  0
   49.1934   37.0162   27.9365 H   0  0  0  0  0  0  0  0  0  0  0  0
   48.3315   38.5368   28.5720 H   0  0  0  0  0  0  0  0  0  0  0  0
   46.4780   35.1010   29.2020 H   0  0  0  0  0  0  0  0  0  0  0  0
  1  2  1  0
  2  3  1  0
  3  4  1  0
  4  5  1  0
  5  6  1  0
  6  7  1  0
  7  8  1  0
  8  9  1  0
  9 10  1  0
 10 11  2  0
 10 12  1  0
  1 13  1  0
  1 14  1  0
  1 15  1  0
  2 16  1  0
  2 17  1  0
  3 18  1  0
  3 19  1  0
  4 20  1  0
  4 21  1  0
  5 22  1  0
  5 23  1  0
  6 24  1  0
  6 25  1  0
  7 26  1  0
  7 27  1  0
  8 28  1  0
  8 29  1  0
  9 30  1  0
  9 31  1  0
 12 32  1  0
M  END
>  <meeko>  (7) 
{"is_sidechain": [false], "free_energy": -4.477, "intermolecular_energy": -6.987, "internal_energy": -0.523}

$$$$
DKA_neutral_focused_run01
     RDKit          3D

 32 31  0  0  0  0  0  0  0  0999 V2000
   45.5400   34.2270   24.7210 C   0  0  0  0  0  0  0  0  0  0  0  0
   46.7690   34.9170   25.0110 C   0  0  0  0  0  0  0  0  0  0  0  0
   46.8070   36.1120   25.7320 C   0  0  0  0  0  0  0  0  0  0  0  0
   48.0430   36.8820   25.8450 C   0  0  0  0  0  0  0  0  0  0  0  0
   47.9490   38.0420   26.7500 C   0  0  0  0  0  0  0  0  0  0  0  0
   48.3460   37.9960   28.1090 C   0  0  0  0  0  0  0  0  0  0  0  0
   47.6820   37.1310   29.0990 C   0  0  0  0  0  0  0  0  0  0  0  0
   48.5460   35.9520   29.5710 C   0  0  0  0  0  0  0  0  0  0  0  0
   48.4160   34.6890   28.8110 C   0  0  0  0  0  0  0  0  0  0  0  0
   47.3350   33.7100   29.2500 C   0  0  0  0  0  0  0  0  0  0  0  0
   47.2370   33.4050   30.4680 O   0  0  0  0  0  0  0  0  0  0  0  0
   46.5480   33.2520   28.3830 O   0  0  0  0  0  0  0  0  0  0  0  0
   45.0446   33.9489   25.6629 H   0  0  0  0  0  0  0  0  0  0  0  0
   44.8783   34.8855   24.1392 H   0  0  0  0  0  0  0  0  0  0  0  0
   45.7576   33.3192   24.1392 H   0  0  0  0  0  0  0  0  0  0  0  0
   47.3952   34.2044   25.5679 H   0  0  0  0  0  0  0  0  0  0  0  0
   47.0830   35.2479   24.0101 H   0  0  0  0  0  0  0  0  0  0  0  0
   46.0636   36.7792   25.2714 H   0  0  0  0  0  0  0  0  0  0  0  0
   46.6345   35.7772   26.7655 H   0  0  0  0  0  0  0  0  0  0  0  0
   48.8328   36.2144   26.2200 H   0  0  0  0  0  0  0  0  0  0  0  0
   48.2623   37.2786   24.8427 H   0  0  0  0  0  0  0  0  0  0  0  0
   48.5501   38.8377   26.2858 H   0  0  0  0  0  0  0  0  0  0  0  0
   46.8593   38.1594   26.8437 H   0  0  0  0  0  0  0  0  0  0  0  0
   49.4057   37.7010   28.1077 H   0  0  0  0  0  0  0  0  0  0  0  0
   48.0629   38.9991   28.4605 H   0  0  0  0  0  0  0  0  0  0  0  0
   47.4220   37.7430   29.9753 H   0  0  0  0  0  0  0  0  0  0  0  0
   46.7965   36.7023   28.6070 H   0  0  0  0  0  0  0  0  0  0  0  0
   49.5985   36.2670   29.5171 H   0  0  0  0  0  0  0  0  0  0  0  0
   48.1888   35.7184   30.5848 H   0  0  0  0  0  0  0  0  0  0  0  0
   48.2133   34.9549   27.7630 H   0  0  0  0  0  0  0  0  0  0  0  0
   49.3627   34.1577   28.9882 H   0  0  0  0  0  0  0  0  0  0  0  0
   45.6720   33.6870   28.2300 H   0  0  0  0  0  0  0  0  0  0  0  0
  1  2  1  0
  2  3  1  0
  3  4  1  0
  4  5  1  0
  5  6  1  0
  6  7  1  0
  7  8  1  0
  8  9  1  0
  9 10  1  0
 10 11  2  0
 10 12  1  0
  1 13  1  0
  1 14  1  0
  1 15  1  0
  2 16  1  0
  2 17  1  0
  3 18  1  0
  3 19  1  0
  4 20  1  0
  4 21  1  0
  5 22  1  0
  5 23  1  0
  6 24  1  0
  6 25  1  0
  7 26  1  0
  7 27  1  0
  8 28  1  0
  8 29  1  0
  9 30  1  0
  9 31  1  0
 12 32  1  0
M  END
>  <meeko>  (8) 
{"is_sidechain": [false], "free_energy": -4.419, "intermolecular_energy": -6.715, "internal_energy": -0.71}

$$$$
DKA_neutral_focused_run01
     RDKit          3D

 32 31  0  0  0  0  0  0  0  0999 V2000
   45.9850   32.4550   27.9030 C   0  0  0  0  0  0  0  0  0  0  0  0
   46.4290   33.5300   27.0550 C   0  0  0  0  0  0  0  0  0  0  0  0
   46.2080   33.5390   25.6770 C   0  0  0  0  0  0  0  0  0  0  0  0
   46.3900   34.7600   24.8960 C   0  0  0  0  0  0  0  0  0  0  0  0
   47.3470   35.7150   25.4850 C   0  0  0  0  0  0  0  0  0  0  0  0
   46.9480   36.9030   26.1440 C   0  0  0  0  0  0  0  0  0  0  0  0
   47.8940   37.9860   26.4670 C   0  0  0  0  0  0  0  0  0  0  0  0
   48.5090   37.8740   27.8700 C   0  0  0  0  0  0  0  0  0  0  0  0
   47.6760   37.2280   28.9090 C   0  0  0  0  0  0  0  0  0  0  0  0
   48.3210   36.1320   29.7480 C   0  0  0  0  0  0  0  0  0  0  0  0
   48.5140   36.3300   30.9760 O   0  0  0  0  0  0  0  0  0  0  0  0
   48.6180   35.0440   29.1930 O   0  0  0  0  0  0  0  0  0  0  0  0
   46.1051   32.7459   28.9570 H   0  0  0  0  0  0  0  0  0  0  0  0
   44.9251   32.2417   27.7000 H   0  0  0  0  0  0  0  0  0  0  0  0
   46.5854   31.5559   27.7000 H   0  0  0  0  0  0  0  0  0  0  0  0
   45.9559   34.4428   27.4461 H   0  0  0  0  0  0  0  0  0  0  0  0
   47.5224   33.4210   27.1070 H   0  0  0  0  0  0  0  0  0  0  0  0
   46.8860   32.7876   25.2461 H   0  0  0  0  0  0  0  0  0  0  0  0
   45.1247   33.3628   25.6035 H   0  0  0  0  0  0  0  0  0  0  0  0
   46.7530   34.4796   23.8962 H   0  0  0  0  0  0  0  0  0  0  0  0
   45.4139   35.2664   24.8673 H   0  0  0  0  0  0  0  0  0  0  0  0
   47.9314   35.1428   26.2205 H   0  0  0  0  0  0  0  0  0  0  0  0
   47.8360   36.1175   24.5856 H   0  0  0  0  0  0  0  0  0  0  0  0
   46.1695   37.3558   25.5124 H   0  0  0  0  0  0  0  0  0  0  0  0
   46.6847   36.5282   27.1441 H   0  0  0  0  0  0  0  0  0  0  0  0
   48.7090   37.9663   25.7285 H   0  0  0  0  0  0  0  0  0  0  0  0
   47.3248   38.9269   26.4409 H   0  0  0  0  0  0  0  0  0  0  0  0
   49.4400   37.2950   27.7810 H   0  0  0  0  0  0  0  0  0  0  0  0
   48.6451   38.9110   28.2107 H   0  0  0  0  0  0  0  0  0  0  0  0
   47.3401   38.0162   29.5989 H   0  0  0  0  0  0  0  0  0  0  0  0
   46.8768   36.7190   28.3503 H   0  0  0  0  0  0  0  0  0  0  0  0
   49.2420   34.4170   29.6360 H   0  0  0  0  0  0  0  0  0  0  0  0
  1  2  1  0
  2  3  1  0
  3  4  1  0
  4  5  1  0
  5  6  1  0
  6  7  1  0
  7  8  1  0
  8  9  1  0
  9 10  1  0
 10 11  2  0
 10 12  1  0
  1 13  1  0
  1 14  1  0
  1 15  1  0
  2 16  1  0
  2 17  1  0
  3 18  1  0
  3 19  1  0
  4 20  1  0
  4 21  1  0
  5 22  1  0
  5 23  1  0
  6 24  1  0
  6 25  1  0
  7 26  1  0
  7 27  1  0
  8 28  1  0
  8 29  1  0
  9 30  1  0
  9 31  1  0
 12 32  1  0
M  END
>  <meeko>  (9) 
{"is_sidechain": [false], "free_energy": -4.384, "intermolecular_energy": -6.869, "internal_energy": -0.502}

$$$$
DKA_neutral_focused_run01
     RDKit          3D

 32 31  0  0  0  0  0  0  0  0999 V2000
   48.1050   35.6750   30.7300 C   0  0  0  0  0  0  0  0  0  0  0  0
   48.5140   36.3240   29.5120 C   0  0  0  0  0  0  0  0  0  0  0  0
   47.6960   37.2260   28.8300 C   0  0  0  0  0  0  0  0  0  0  0  0
   48.2570   38.1620   27.8590 C   0  0  0  0  0  0  0  0  0  0  0  0
   47.8430   37.9050   26.4670 C   0  0  0  0  0  0  0  0  0  0  0  0
   47.9120   36.6250   25.8640 C   0  0  0  0  0  0  0  0  0  0  0  0
   46.7100   35.8410   25.5290 C   0  0  0  0  0  0  0  0  0  0  0  0
   47.0010   34.3700   25.2000 C   0  0  0  0  0  0  0  0  0  0  0  0
   46.5350   33.3660   26.1820 C   0  0  0  0  0  0  0  0  0  0  0  0
   47.1710   33.3850   27.5660 C   0  0  0  0  0  0  0  0  0  0  0  0
   48.4250   33.3440   27.6680 O   0  0  0  0  0  0  0  0  0  0  0  0
   46.4220   33.4700   28.5720 O   0  0  0  0  0  0  0  0  0  0  0  0
   48.4687   36.2521   31.5930 H   0  0  0  0  0  0  0  0  0  0  0  0
   47.0070   35.6173   30.7639 H   0  0  0  0  0  0  0  0  0  0  0  0
   48.5267   34.6596   30.7639 H   0  0  0  0  0  0  0  0  0  0  0  0
   49.4372   36.8714   29.7531 H   0  0  0  0  0  0  0  0  0  0  0  0
   48.5518   35.4789   28.8088 H   0  0  0  0  0  0  0  0  0  0  0  0
   46.9492   36.6252   28.2903 H   0  0  0  0  0  0  0  0  0  0  0  0
   47.3451   37.8907   29.6332 H   0  0  0  0  0  0  0  0  0  0  0  0
   47.9361   39.1778   28.1330 H   0  0  0  0  0  0  0  0  0  0  0  0
   49.3495   38.0381   27.8933 H   0  0  0  0  0  0  0  0  0  0  0  0
   46.7891   38.2135   26.4027 H   0  0  0  0  0  0  0  0  0  0  0  0
   48.6123   38.4543   25.9044 H   0  0  0  0  0  0  0  0  0  0  0  0
   48.4605   36.7612   24.9203 H   0  0  0  0  0  0  0  0  0  0  0  0
   48.3578   36.0211   26.6681 H   0  0  0  0  0  0  0  0  0  0  0  0
   46.0234   35.8750   26.3878 H   0  0  0  0  0  0  0  0  0  0  0  0
   46.2757   36.2916   24.6244 H   0  0  0  0  0  0  0  0  0  0  0  0
   46.5210   34.1423   24.2368 H   0  0  0  0  0  0  0  0  0  0  0  0
   48.0977   34.2852   25.1973 H   0  0  0  0  0  0  0  0  0  0  0  0
   45.4530   33.5133   26.3150 H   0  0  0  0  0  0  0  0  0  0  0  0
   46.8299   32.3973   25.7524 H   0  0  0  0  0  0  0  0  0  0  0  0
   45.5100   33.0870   28.5440 H   0  0  0  0  0  0  0  0  0  0  0  0
  1  2  1  0
  2  3  1  0
  3  4  1  0
  4  5  1  0
  5  6  1  0
  6  7  1  0
  7  8  1  0
  8  9  1  0
  9 10  1  0
 10 11  2  0
 10 12  1  0
  1 13  1  0
  1 14  1  0
  1 15  1  0
  2 16  1  0
  2 17  1  0
  3 18  1  0
  3 19  1  0
  4 20  1  0
  4 21  1  0
  5 22  1  0
  5 23  1  0
  6 24  1  0
  6 25  1  0
  7 26  1  0
  7 27  1  0
  8 28  1  0
  8 29  1  0
  9 30  1  0
  9 31  1  0
 12 32  1  0
M  END
>  <meeko>  (10) 
{"is_sidechain": [false], "free_energy": -4.342, "intermolecular_energy": -6.582, "internal_energy": -0.727}

$$$$
DKA_neutral_focused_run01
     RDKit          3D

 32 31  0  0  0  0  0  0  0  0999 V2000
   47.7720   36.1590   29.6840 C   0  0  0  0  0  0  0  0  0  0  0  0
   47.5300   37.3420   28.9000 C   0  0  0  0  0  0  0  0  0  0  0  0
   48.1960   37.5960   27.7000 C   0  0  0  0  0  0  0  0  0  0  0  0
   47.4660   37.6660   26.4360 C   0  0  0  0  0  0  0  0  0  0  0  0
   47.0480   36.3550   25.9090 C   0  0  0  0  0  0  0  0  0  0  0  0
   47.8520   35.1920   26.0010 C   0  0  0  0  0  0  0  0  0  0  0  0
   47.4700   33.9130   25.3780 C   0  0  0  0  0  0  0  0  0  0  0  0
   48.6520   32.9630   25.1370 C   0  0  0  0  0  0  0  0  0  0  0  0
   49.9820   33.4340   25.5850 C   0  0  0  0  0  0  0  0  0  0  0  0
   51.1950   32.6010   25.1890 C   0  0  0  0  0  0  0  0  0  0  0  0
   52.3270   32.9070   25.6460 O   0  0  0  0  0  0  0  0  0  0  0  0
   51.0250   31.6090   24.4350 O   0  0  0  0  0  0  0  0  0  0  0  0
   47.7204   36.4110   30.7535 H   0  0  0  0  0  0  0  0  0  0  0  0
   47.0103   35.4011   29.4488 H   0  0  0  0  0  0  0  0  0  0  0  0
   48.7701   35.7611   29.4488 H   0  0  0  0  0  0  0  0  0  0  0  0
   46.4570   37.3337   28.6579 H   0  0  0  0  0  0  0  0  0  0  0  0
   47.9325   38.1309   29.5524 H   0  0  0  0  0  0  0  0  0  0  0  0
   48.7035   38.5642   27.8225 H   0  0  0  0  0  0  0  0  0  0  0  0
   48.8169   36.6971   27.5721 H   0  0  0  0  0  0  0  0  0  0  0  0
   46.5659   38.2791   26.5905 H   0  0  0  0  0  0  0  0  0  0  0  0
   48.1542   38.1004   25.6960 H   0  0  0  0  0  0  0  0  0  0  0  0
   46.1040   36.1112   26.4183 H   0  0  0  0  0  0  0  0  0  0  0  0
   47.0567   36.5419   24.8250 H   0  0  0  0  0  0  0  0  0  0  0  0
   48.8283   35.4611   25.5715 H   0  0  0  0  0  0  0  0  0  0  0  0
   47.7779   34.9515   27.0718 H   0  0  0  0  0  0  0  0  0  0  0  0
   46.7483   33.4082   26.0370 H   0  0  0  0  0  0  0  0  0  0  0  0
   47.0448   34.1516   24.3919 H   0  0  0  0  0  0  0  0  0  0  0  0
   48.4364   32.0216   25.6635 H   0  0  0  0  0  0  0  0  0  0  0  0
   48.7305   32.8686   24.0439 H   0  0  0  0  0  0  0  0  0  0  0  0
   50.1286   34.4443   25.1755 H   0  0  0  0  0  0  0  0  0  0  0  0
   49.9458   33.3710   26.6826 H   0  0  0  0  0  0  0  0  0  0  0  0
   50.5300   31.7140   23.5840 H   0  0  0  0  0  0  0  0  0  0  0  0
  1  2  1  0
  2  3  1  0
  3  4  1  0
  4  5  1  0
  5  6  1  0
  6  7  1  0
  7  8  1  0
  8  9  1  0
  9 10  1  0
 10 11  2  0
 10 12  1  0
  1 13  1  0
  1 14  1  0
  1 15  1  0
  2 16  1  0
  2 17  1  0
  3 18  1  0
  3 19  1  0
  4 20  1  0
  4 21  1  0
  5 22  1  0
  5 23  1  0
  6 24  1  0
  6 25  1  0
  7 26  1  0
  7 27  1  0
  8 28  1  0
  8 29  1  0
  9 30  1  0
  9 31  1  0
 12 32  1  0
M  END
>  <meeko>  (11) 
{"is_sidechain": [false], "free_energy": -4.29, "intermolecular_energy": -6.767, "internal_energy": -0.465}

$$$$
DKA_neutral_focused_run01
     RDKit          3D

 32 31  0  0  0  0  0  0  0  0999 V2000
   51.2180   32.5210   25.2410 C   0  0  0  0  0  0  0  0  0  0  0  0
   49.7850   32.6430   25.2850 C   0  0  0  0  0  0  0  0  0  0  0  0
   49.1410   33.8660   25.4770 C   0  0  0  0  0  0  0  0  0  0  0  0
   47.9300   33.9580   26.2880 C   0  0  0  0  0  0  0  0  0  0  0  0
   48.1700   33.8730   27.7400 C   0  0  0  0  0  0  0  0  0  0  0  0
   47.4870   34.6760   28.6860 C   0  0  0  0  0  0  0  0  0  0  0  0
   48.1220   35.8220   29.3590 C   0  0  0  0  0  0  0  0  0  0  0  0
   47.5550   37.1840   28.9320 C   0  0  0  0  0  0  0  0  0  0  0  0
   48.3050   37.9160   27.8870 C   0  0  0  0  0  0  0  0  0  0  0  0
   47.7680   37.8580   26.4630 C   0  0  0  0  0  0  0  0  0  0  0  0
   46.6420   37.3370   26.2490 O   0  0  0  0  0  0  0  0  0  0  0  0
   48.4570   38.3590   25.5380 O   0  0  0  0  0  0  0  0  0  0  0  0
   51.6148   32.4872   26.2664 H   0  0  0  0  0  0  0  0  0  0  0  0
   51.4912   31.5963   24.7115 H   0  0  0  0  0  0  0  0  0  0  0  0
   51.6436   33.3862   24.7115 H   0  0  0  0  0  0  0  0  0  0  0  0
   49.4157   32.2509   24.3259 H   0  0  0  0  0  0  0  0  0  0  0  0
   49.5427   32.1124   26.2176 H   0  0  0  0  0  0  0  0  0  0  0  0
   49.8786   34.5391   25.9385 H   0  0  0  0  0  0  0  0  0  0  0  0
   48.7761   34.1089   24.4681 H   0  0  0  0  0  0  0  0  0  0  0  0
   47.4434   34.9210   26.0741 H   0  0  0  0  0  0  0  0  0  0  0  0
   47.3021   33.0957   26.0193 H   0  0  0  0  0  0  0  0  0  0  0  0
   47.9599   32.8304   28.0207 H   0  0  0  0  0  0  0  0  0  0  0  0
   49.1935   34.2688   27.8158 H   0  0  0  0  0  0  0  0  0  0  0  0
   46.6056   35.0782   28.1651 H   0  0  0  0  0  0  0  0  0  0  0  0
   47.3504   33.9727   29.5207 H   0  0  0  0  0  0  0  0  0  0  0  0
   47.9773   35.7108   30.4438 H   0  0  0  0  0  0  0  0  0  0  0  0
   49.1841   35.8132   29.0727 H   0  0  0  0  0  0  0  0  0  0  0  0
   46.5348   37.0177   28.5559 H   0  0  0  0  0  0  0  0  0  0  0  0
   47.6151   37.8173   29.8294 H   0  0  0  0  0  0  0  0  0  0  0  0
   48.3357   38.9746   28.1844 H   0  0  0  0  0  0  0  0  0  0  0  0
   49.2813   37.4115   27.8384 H   0  0  0  0  0  0  0  0  0  0  0  0
   48.3420   39.3130   25.2960 H   0  0  0  0  0  0  0  0  0  0  0  0
  1  2  1  0
  2  3  1  0
  3  4  1  0
  4  5  1  0
  5  6  1  0
  6  7  1  0
  7  8  1  0
  8  9  1  0
  9 10  1  0
 10 11  2  0
 10 12  1  0
  1 13  1  0
  1 14  1  0
  1 15  1  0
  2 16  1  0
  2 17  1  0
  3 18  1  0
  3 19  1  0
  4 20  1  0
  4 21  1  0
  5 22  1  0
  5 23  1  0
  6 24  1  0
  6 25  1  0
  7 26  1  0
  7 27  1  0
  8 28  1  0
  8 29  1  0
  9 30  1  0
  9 31  1  0
 12 32  1  0
M  END
>  <meeko>  (12) 
{"is_sidechain": [false], "free_energy": -4.249, "intermolecular_energy": -6.547, "internal_energy": -0.623}

$$$$
DKA_neutral_focused_run01
     RDKit          3D

 32 31  0  0  0  0  0  0  0  0999 V2000
   50.8190   32.7800   25.3100 C   0  0  0  0  0  0  0  0  0  0  0  0
   49.4030   32.7220   25.0620 C   0  0  0  0  0  0  0  0  0  0  0  0
   48.5320   31.9710   25.8540 C   0  0  0  0  0  0  0  0  0  0  0  0
   47.0870   32.0330   25.6470 C   0  0  0  0  0  0  0  0  0  0  0  0
   46.4310   33.1670   26.3230 C   0  0  0  0  0  0  0  0  0  0  0  0
   45.8740   34.2660   25.6250 C   0  0  0  0  0  0  0  0  0  0  0  0
   46.6990   35.3530   25.0690 C   0  0  0  0  0  0  0  0  0  0  0  0
   47.7410   35.9060   26.0520 C   0  0  0  0  0  0  0  0  0  0  0  0
   47.2550   36.8850   27.0500 C   0  0  0  0  0  0  0  0  0  0  0  0
   47.4710   36.5580   28.5220 C   0  0  0  0  0  0  0  0  0  0  0  0
   47.3410   35.3690   28.9150 O   0  0  0  0  0  0  0  0  0  0  0  0
   47.8030   37.4860   29.3030 O   0  0  0  0  0  0  0  0  0  0  0  0
   51.0013   32.7875   26.3948 H   0  0  0  0  0  0  0  0  0  0  0  0
   51.3059   31.9010   24.8624 H   0  0  0  0  0  0  0  0  0  0  0  0
   51.2324   33.6958   24.8624 H   0  0  0  0  0  0  0  0  0  0  0  0
   49.0418   33.7599   25.1106 H   0  0  0  0  0  0  0  0  0  0  0  0
   49.3639   32.1783   24.1066 H   0  0  0  0  0  0  0  0  0  0  0  0
   48.8218   30.9176   25.7260 H   0  0  0  0  0  0  0  0  0  0  0  0
   48.6546   32.4256   26.8481 H   0  0  0  0  0  0  0  0  0  0  0  0
   46.8959   32.1170   24.5670 H   0  0  0  0  0  0  0  0  0  0  0  0
   46.6641   31.1158   26.0828 H   0  0  0  0  0  0  0  0  0  0  0  0
   45.6086   32.7339   26.9113 H   0  0  0  0  0  0  0  0  0  0  0  0
   47.2829   33.6405   26.8330 H   0  0  0  0  0  0  0  0  0  0  0  0
   45.3195   33.8391   24.7763 H   0  0  0  0  0  0  0  0  0  0  0  0
   45.3264   34.7860   26.4248 H   0  0  0  0  0  0  0  0  0  0  0  0
   47.2270   34.9693   24.1836 H   0  0  0  0  0  0  0  0  0  0  0  0
   46.0165   36.1809   24.8267 H   0  0  0  0  0  0  0  0  0  0  0  0
   48.1678   35.0535   26.6008 H   0  0  0  0  0  0  0  0  0  0  0  0
   48.4621   36.4578   25.4310 H   0  0  0  0  0  0  0  0  0  0  0  0
   47.7612   37.8403   26.8474 H   0  0  0  0  0  0  0  0  0  0  0  0
   46.1624   36.8940   26.9233 H   0  0  0  0  0  0  0  0  0  0  0  0
   47.1220   38.1270   29.6270 H   0  0  0  0  0  0  0  0  0  0  0  0
  1  2  1  0
  2  3  1  0
  3  4  1  0
  4  5  1  0
  5  6  1  0
  6  7  1  0
  7  8  1  0
  8  9  1  0
  9 10  1  0
 10 11  2  0
 10 12  1  0
  1 13  1  0
  1 14  1  0
  1 15  1  0
  2 16  1  0
  2 17  1  0
  3 18  1  0
  3 19  1  0
  4 20  1  0
  4 21  1  0
  5 22  1  0
  5 23  1  0
  6 24  1  0
  6 25  1  0
  7 26  1  0
  7 27  1  0
  8 28  1  0
  8 29  1  0
  9 30  1  0
  9 31  1  0
 12 32  1  0
M  END
>  <meeko>  (13) 
{"is_sidechain": [false], "free_energy": -4.248, "intermolecular_energy": -6.368, "internal_energy": -0.801}

$$$$
DKA_neutral_focused_run01
     RDKit          3D

 32 31  0  0  0  0  0  0  0  0999 V2000
   48.3090   38.4160   27.6740 C   0  0  0  0  0  0  0  0  0  0  0  0
   47.9910   37.1010   28.1640 C   0  0  0  0  0  0  0  0  0  0  0  0
   47.4410   36.1100   27.3500 C   0  0  0  0  0  0  0  0  0  0  0  0
   47.0490   36.4010   25.9730 C   0  0  0  0  0  0  0  0  0  0  0  0
   46.5130   35.2380   25.2410 C   0  0  0  0  0  0  0  0  0  0  0  0
   46.3010   33.9750   25.8460 C   0  0  0  0  0  0  0  0  0  0  0  0
   47.1400   32.8010   25.5450 C   0  0  0  0  0  0  0  0  0  0  0  0
   48.4770   33.1510   24.8750 C   0  0  0  0  0  0  0  0  0  0  0  0
   49.6730   33.1600   25.7470 C   0  0  0  0  0  0  0  0  0  0  0  0
   50.9440   32.5160   25.2080 C   0  0  0  0  0  0  0  0  0  0  0  0
   50.8540   31.5240   24.4390 O   0  0  0  0  0  0  0  0  0  0  0  0
   52.0540   33.0150   25.5270 O   0  0  0  0  0  0  0  0  0  0  0  0
   48.4730   39.0944   28.5242 H   0  0  0  0  0  0  0  0  0  0  0  0
   49.2215   38.3684   27.0616 H   0  0  0  0  0  0  0  0  0  0  0  0
   47.4755   38.7906   27.0616 H   0  0  0  0  0  0  0  0  0  0  0  0
   48.9307   36.6862   28.5576 H   0  0  0  0  0  0  0  0  0  0  0  0
   47.1608   37.3123   28.8540 H   0  0  0  0  0  0  0  0  0  0  0  0
   48.1825   35.2990   27.2997 H   0  0  0  0  0  0  0  0  0  0  0  0
   46.4772   35.9026   27.8379 H   0  0  0  0  0  0  0  0  0  0  0  0
   46.2761   37.1835   25.9918 H   0  0  0  0  0  0  0  0  0  0  0  0
   47.9602   36.7166   25.4437 H   0  0  0  0  0  0  0  0  0  0  0  0
   45.5355   35.5527   24.8467 H   0  0  0  0  0  0  0  0  0  0  0  0
   47.3389   35.0142   24.5497 H   0  0  0  0  0  0  0  0  0  0  0  0
   46.3826   34.1385   26.9307 H   0  0  0  0  0  0  0  0  0  0  0  0
   45.3343   33.6777   25.4135 H   0  0  0  0  0  0  0  0  0  0  0  0
   47.3515   32.2748   26.4876 H   0  0  0  0  0  0  0  0  0  0  0  0
   46.5777   32.1789   24.8331 H   0  0  0  0  0  0  0  0  0  0  0  0
   48.6523   32.4159   24.0757 H   0  0  0  0  0  0  0  0  0  0  0  0
   48.3641   34.1883   24.5269 H   0  0  0  0  0  0  0  0  0  0  0  0
   49.9071   34.2106   25.9736 H   0  0  0  0  0  0  0  0  0  0  0  0
   49.3922   32.5419   26.6125 H   0  0  0  0  0  0  0  0  0  0  0  0
   52.8910   32.5240   25.3320 H   0  0  0  0  0  0  0  0  0  0  0  0
  1  2  1  0
  2  3  1  0
  3  4  1  0
  4  5  1  0
  5  6  1  0
  6  7  1  0
  7  8  1  0
  8  9  1  0
  9 10  1  0
 10 11  2  0
 10 12  1  0
  1 13  1  0
  1 14  1  0
  1 15  1  0
  2 16  1  0
  2 17  1  0
  3 18  1  0
  3 19  1  0
  4 20  1  0
  4 21  1  0
  5 22  1  0
  5 23  1  0
  6 24  1  0
  6 25  1  0
  7 26  1  0
  7 27  1  0
  8 28  1  0
  8 29  1  0
  9 30  1  0
  9 31  1  0
 12 32  1  0
M  END
>  <meeko>  (14) 
{"is_sidechain": [false], "free_energy": -4.245, "intermolecular_energy": -6.534, "internal_energy": -0.63}

$$$$
DKA_neutral_focused_run01
     RDKit          3D

 32 31  0  0  0  0  0  0  0  0999 V2000
   51.6760   31.7180   24.8460 C   0  0  0  0  0  0  0  0  0  0  0  0
   50.9100   32.7340   25.5170 C   0  0  0  0  0  0  0  0  0  0  0  0
   49.5730   32.9910   25.2100 C   0  0  0  0  0  0  0  0  0  0  0  0
   48.6350   31.8990   24.9630 C   0  0  0  0  0  0  0  0  0  0  0  0
   47.3710   32.0090   25.7140 C   0  0  0  0  0  0  0  0  0  0  0  0
   46.8690   33.2380   26.2060 C   0  0  0  0  0  0  0  0  0  0  0  0
   46.1360   34.1930   25.3560 C   0  0  0  0  0  0  0  0  0  0  0  0
   46.7070   35.6180   25.3900 C   0  0  0  0  0  0  0  0  0  0  0  0
   47.6900   35.9130   26.4550 C   0  0  0  0  0  0  0  0  0  0  0  0
   47.9130   37.3740   26.8250 C   0  0  0  0  0  0  0  0  0  0  0  0
   48.3540   37.6600   27.9680 O   0  0  0  0  0  0  0  0  0  0  0  0
   47.6750   38.2570   25.9610 O   0  0  0  0  0  0  0  0  0  0  0  0
   52.1625   31.0727   25.5923 H   0  0  0  0  0  0  0  0  0  0  0  0
   51.0085   31.1115   24.2163 H   0  0  0  0  0  0  0  0  0  0  0  0
   52.4428   32.1929   24.2163 H   0  0  0  0  0  0  0  0  0  0  0  0
   50.9340   32.4781   26.5865 H   0  0  0  0  0  0  0  0  0  0  0  0
   51.4020   33.6540   25.1685 H   0  0  0  0  0  0  0  0  0  0  0  0
   49.1645   33.5700   26.0514 H   0  0  0  0  0  0  0  0  0  0  0  0
   49.6400   33.4797   24.2268 H   0  0  0  0  0  0  0  0  0  0  0  0
   48.3983   31.8834   23.8889 H   0  0  0  0  0  0  0  0  0  0  0  0
   49.1266   30.9758   25.3035 H   0  0  0  0  0  0  0  0  0  0  0  0
   46.5899   31.6061   25.0526 H   0  0  0  0  0  0  0  0  0  0  0  0
   47.6248   31.4863   26.6480 H   0  0  0  0  0  0  0  0  0  0  0  0
   46.1897   32.9812   27.0322 H   0  0  0  0  0  0  0  0  0  0  0  0
   47.7962   33.7910   26.4171 H   0  0  0  0  0  0  0  0  0  0  0  0
   46.1701   33.8304   24.3180 H   0  0  0  0  0  0  0  0  0  0  0  0
   45.1101   34.2495   25.7488 H   0  0  0  0  0  0  0  0  0  0  0  0
   47.1970   35.8042   24.4229 H   0  0  0  0  0  0  0  0  0  0  0  0
   45.8466   36.2699   25.6013 H   0  0  0  0  0  0  0  0  0  0  0  0
   47.3569   35.3906   27.3639 H   0  0  0  0  0  0  0  0  0  0  0  0
   48.6544   35.5787   26.0449 H   0  0  0  0  0  0  0  0  0  0  0  0
   48.3470   38.4620   25.2640 H   0  0  0  0  0  0  0  0  0  0  0  0
  1  2  1  0
  2  3  1  0
  3  4  1  0
  4  5  1  0
  5  6  1  0
  6  7  1  0
  7  8  1  0
  8  9  1  0
  9 10  1  0
 10 11  2  0
 10 12  1  0
  1 13  1  0
  1 14  1  0
  1 15  1  0
  2 16  1  0
  2 17  1  0
  3 18  1  0
  3 19  1  0
  4 20  1  0
  4 21  1  0
  5 22  1  0
  5 23  1  0
  6 24  1  0
  6 25  1  0
  7 26  1  0
  7 27  1  0
  8 28  1  0
  8 29  1  0
  9 30  1  0
  9 31  1  0
 12 32  1  0
M  END
>  <meeko>  (15) 
{"is_sidechain": [false], "free_energy": -4.164, "intermolecular_energy": -6.441, "internal_energy": -0.601}

$$$$
DKA_neutral_focused_run01
     RDKit          3D

 32 31  0  0  0  0  0  0  0  0999 V2000
   46.6360   31.0390   25.5630 C   0  0  0  0  0  0  0  0  0  0  0  0
   46.6840   32.0530   26.5830 C   0  0  0  0  0  0  0  0  0  0  0  0
   47.7100   32.9950   26.6590 C   0  0  0  0  0  0  0  0  0  0  0  0
   48.0150   33.8650   25.5260 C   0  0  0  0  0  0  0  0  0  0  0  0
   46.9160   34.7740   25.1520 C   0  0  0  0  0  0  0  0  0  0  0  0
   46.7860   36.0850   25.6730 C   0  0  0  0  0  0  0  0  0  0  0  0
   47.9470   36.9550   25.9300 C   0  0  0  0  0  0  0  0  0  0  0  0
   47.8080   37.8170   27.1930 C   0  0  0  0  0  0  0  0  0  0  0  0
   48.4690   37.3110   28.4170 C   0  0  0  0  0  0  0  0  0  0  0  0
   47.6040   36.5810   29.4360 C   0  0  0  0  0  0  0  0  0  0  0  0
   47.0920   37.2290   30.3860 O   0  0  0  0  0  0  0  0  0  0  0  0
   47.4020   35.3500   29.2820 O   0  0  0  0  0  0  0  0  0  0  0  0
   46.5890   30.0464   26.0347 H   0  0  0  0  0  0  0  0  0  0  0  0
   45.7440   31.1902   24.9373 H   0  0  0  0  0  0  0  0  0  0  0  0
   47.5383   31.1053   24.9373 H   0  0  0  0  0  0  0  0  0  0  0  0
   45.7501   32.6263   26.4872 H   0  0  0  0  0  0  0  0  0  0  0  0
   46.8630   31.4530   27.4874 H   0  0  0  0  0  0  0  0  0  0  0  0
   47.4669   33.6554   27.5045 H   0  0  0  0  0  0  0  0  0  0  0  0
   48.6107   32.3678   26.7331 H   0  0  0  0  0  0  0  0  0  0  0  0
   48.8939   34.4738   25.7847 H   0  0  0  0  0  0  0  0  0  0  0  0
   48.1923   33.2089   24.6610 H   0  0  0  0  0  0  0  0  0  0  0  0
   46.9751   34.8869   24.0594 H   0  0  0  0  0  0  0  0  0  0  0  0
   46.0504   34.2704   25.6071 H   0  0  0  0  0  0  0  0  0  0  0  0
   46.1452   36.6322   24.9659 H   0  0  0  0  0  0  0  0  0  0  0  0
   46.4236   35.8868   26.6925 H   0  0  0  0  0  0  0  0  0  0  0  0
   48.8385   36.3201   26.0398 H   0  0  0  0  0  0  0  0  0  0  0  0
   48.0245   37.6459   25.0776 H   0  0  0  0  0  0  0  0  0  0  0  0
   48.2322   38.8070   26.9697 H   0  0  0  0  0  0  0  0  0  0  0  0
   46.7327   37.8207   27.4246 H   0  0  0  0  0  0  0  0  0  0  0  0
   49.2609   36.6164   28.1000 H   0  0  0  0  0  0  0  0  0  0  0  0
   48.8151   38.2142   28.9409 H   0  0  0  0  0  0  0  0  0  0  0  0
   48.0690   34.7940   28.8050 H   0  0  0  0  0  0  0  0  0  0  0  0
  1  2  1  0
  2  3  1  0
  3  4  1  0
  4  5  1  0
  5  6  1  0
  6  7  1  0
  7  8  1  0
  8  9  1  0
  9 10  1  0
 10 11  2  0
 10 12  1  0
  1 13  1  0
  1 14  1  0
  1 15  1  0
  2 16  1  0
  2 17  1  0
  3 18  1  0
  3 19  1  0
  4 20  1  0
  4 21  1  0
  5 22  1  0
  5 23  1  0
  6 24  1  0
  6 25  1  0
  7 26  1  0
  7 27  1  0
  8 28  1  0
  8 29  1  0
  9 30  1  0
  9 31  1  0
 12 32  1  0
M  END
>  <meeko>  (16) 
{"is_sidechain": [false], "free_energy": -4.163, "intermolecular_energy": -6.425, "internal_energy": -0.616}

$$$$
DKA_neutral_focused_run01
     RDKit          3D

 32 31  0  0  0  0  0  0  0  0999 V2000
   47.5810   34.1870   28.8050 C   0  0  0  0  0  0  0  0  0  0  0  0
   48.6460   34.8760   29.4850 C   0  0  0  0  0  0  0  0  0  0  0  0
   48.6580   36.2610   29.6510 C   0  0  0  0  0  0  0  0  0  0  0  0
   47.6370   37.1010   29.0300 C   0  0  0  0  0  0  0  0  0  0  0  0
   48.1510   37.9920   27.9730 C   0  0  0  0  0  0  0  0  0  0  0  0
   47.8250   37.8350   26.6040 C   0  0  0  0  0  0  0  0  0  0  0  0
   47.9250   36.5390   25.9090 C   0  0  0  0  0  0  0  0  0  0  0  0
   46.5660   35.8840   25.6210 C   0  0  0  0  0  0  0  0  0  0  0  0
   46.5690   34.7310   24.6940 C   0  0  0  0  0  0  0  0  0  0  0  0
   47.2280   33.4440   25.1720 C   0  0  0  0  0  0  0  0  0  0  0  0
   48.4480   33.2480   24.9300 O   0  0  0  0  0  0  0  0  0  0  0  0
   46.5370   32.6190   25.8240 O   0  0  0  0  0  0  0  0  0  0  0  0
   46.8983   33.7453   29.5458 H   0  0  0  0  0  0  0  0  0  0  0  0
   47.0275   34.8986   28.1747 H   0  0  0  0  0  0  0  0  0  0  0  0
   48.0032   33.3905   28.1747 H   0  0  0  0  0  0  0  0  0  0  0  0
   48.6901   34.4469   30.4969 H   0  0  0  0  0  0  0  0  0  0  0  0
   49.4888   34.7248   28.7945 H   0  0  0  0  0  0  0  0  0  0  0  0
   48.6002   36.4469   30.7336 H   0  0  0  0  0  0  0  0  0  0  0  0
   49.5739   36.5608   29.1207 H   0  0  0  0  0  0  0  0  0  0  0  0
   46.8726   36.4454   28.5875 H   0  0  0  0  0  0  0  0  0  0  0  0
   47.2342   37.7488   29.8226 H   0  0  0  0  0  0  0  0  0  0  0  0
   47.8254   39.0063   28.2473 H   0  0  0  0  0  0  0  0  0  0  0  0
   49.2214   37.7386   27.9740 H   0  0  0  0  0  0  0  0  0  0  0  0
   46.7783   38.1570   26.5005 H   0  0  0  0  0  0  0  0  0  0  0  0
   48.6216   38.4148   26.1149 H   0  0  0  0  0  0  0  0  0  0  0  0
   48.4433   36.6978   24.9519 H   0  0  0  0  0  0  0  0  0  0  0  0
   48.4736   35.8586   26.5769 H   0  0  0  0  0  0  0  0  0  0  0  0
   46.1516   35.5399   26.5801 H   0  0  0  0  0  0  0  0  0  0  0  0
   45.9714   36.6599   25.1165 H   0  0  0  0  0  0  0  0  0  0  0  0
   45.5207   34.4959   24.4577 H   0  0  0  0  0  0  0  0  0  0  0  0
   47.1823   35.0592   23.8419 H   0  0  0  0  0  0  0  0  0  0  0  0
   46.2670   31.7620   25.4090 H   0  0  0  0  0  0  0  0  0  0  0  0
  1  2  1  0
  2  3  1  0
  3  4  1  0
  4  5  1  0
  5  6  1  0
  6  7  1  0
  7  8  1  0
  8  9  1  0
  9 10  1  0
 10 11  2  0
 10 12  1  0
  1 13  1  0
  1 14  1  0
  1 15  1  0
  2 16  1  0
  2 17  1  0
  3 18  1  0
  3 19  1  0
  4 20  1  0
  4 21  1  0
  5 22  1  0
  5 23  1  0
  6 24  1  0
  6 25  1  0
  7 26  1  0
  7 27  1  0
  8 28  1  0
  8 29  1  0
  9 30  1  0
  9 31  1  0
 12 32  1  0
M  END
>  <meeko>  (17) 
{"is_sidechain": [false], "free_energy": -4.163, "intermolecular_energy": -6.21, "internal_energy": -0.831}

$$$$
DKA_neutral_focused_run01
     RDKit          3D

 32 31  0  0  0  0  0  0  0  0999 V2000
   48.0150   37.1430   28.8080 C   0  0  0  0  0  0  0  0  0  0  0  0
   48.1890   38.1340   27.7800 C   0  0  0  0  0  0  0  0  0  0  0  0
   47.8100   37.9160   26.4550 C   0  0  0  0  0  0  0  0  0  0  0  0
   47.9920   36.6100   25.8270 C   0  0  0  0  0  0  0  0  0  0  0  0
   46.7320   35.9310   25.4740 C   0  0  0  0  0  0  0  0  0  0  0  0
   46.6620   34.5580   25.1330 C   0  0  0  0  0  0  0  0  0  0  0  0
   47.8400   33.6740   25.1590 C   0  0  0  0  0  0  0  0  0  0  0  0
   47.7520   32.5540   26.2060 C   0  0  0  0  0  0  0  0  0  0  0  0
   46.4300   32.3360   26.8340 C   0  0  0  0  0  0  0  0  0  0  0  0
   46.2720   32.7230   28.2990 C   0  0  0  0  0  0  0  0  0  0  0  0
   46.8610   33.7480   28.7320 O   0  0  0  0  0  0  0  0  0  0  0  0
   45.5320   32.0190   29.0320 O   0  0  0  0  0  0  0  0  0  0  0  0
   48.0988   37.6204   29.7955 H   0  0  0  0  0  0  0  0  0  0  0  0
   47.0219   36.6807   28.7073 H   0  0  0  0  0  0  0  0  0  0  0  0
   48.7912   36.3701   28.7073 H   0  0  0  0  0  0  0  0  0  0  0  0
   47.6323   39.0218   28.1146 H   0  0  0  0  0  0  0  0  0  0  0  0
   49.2848   38.1805   27.6957 H   0  0  0  0  0  0  0  0  0  0  0  0
   46.7358   38.1452   26.3949 H   0  0  0  0  0  0  0  0  0  0  0  0
   48.5092   38.5541   25.8947 H   0  0  0  0  0  0  0  0  0  0  0  0
   48.5795   36.7478   24.9073 H   0  0  0  0  0  0  0  0  0  0  0  0
   48.5005   35.9716   26.5644 H   0  0  0  0  0  0  0  0  0  0  0  0
   46.0651   36.0622   26.3389 H   0  0  0  0  0  0  0  0  0  0  0  0
   46.4884   36.4077   24.5131 H   0  0  0  0  0  0  0  0  0  0  0  0
   45.9289   34.1099   25.8198 H   0  0  0  0  0  0  0  0  0  0  0  0
   46.4393   34.6045   24.0568 H   0  0  0  0  0  0  0  0  0  0  0  0
   47.9494   33.2129   24.1663 H   0  0  0  0  0  0  0  0  0  0  0  0
   48.7034   34.2991   25.4306 H   0  0  0  0  0  0  0  0  0  0  0  0
   48.0473   31.6148   25.7155 H   0  0  0  0  0  0  0  0  0  0  0  0
   48.4136   32.8709   27.0257 H   0  0  0  0  0  0  0  0  0  0  0  0
   45.6931   32.9161   26.2592 H   0  0  0  0  0  0  0  0  0  0  0  0
   46.2893   31.2452   26.8168 H   0  0  0  0  0  0  0  0  0  0  0  0
   45.0340   31.2560   28.6450 H   0  0  0  0  0  0  0  0  0  0  0  0
  1  2  1  0
  2  3  1  0
  3  4  1  0
  4  5  1  0
  5  6  1  0
  6  7  1  0
  7  8  1  0
  8  9  1  0
  9 10  1  0
 10 11  2  0
 10 12  1  0
  1 13  1  0
  1 14  1  0
  1 15  1  0
  2 16  1  0
  2 17  1  0
  3 18  1  0
  3 19  1  0
  4 20  1  0
  4 21  1  0
  5 22  1  0
  5 23  1  0
  6 24  1  0
  6 25  1  0
  7 26  1  0
  7 27  1  0
  8 28  1  0
  8 29  1  0
  9 30  1  0
  9 31  1  0
 12 32  1  0
M  END
>  <meeko>  (18) 
{"is_sidechain": [false], "free_energy": -4.149, "intermolecular_energy": -6.444, "internal_energy": -0.577}

$$$$
DKA_neutral_focused_run01
     RDKit          3D

 32 31  0  0  0  0  0  0  0  0999 V2000
   47.1250   36.3220   25.7130 C   0  0  0  0  0  0  0  0  0  0  0  0
   47.1760   37.4820   26.5620 C   0  0  0  0  0  0  0  0  0  0  0  0
   48.0690   37.5930   27.6290 C   0  0  0  0  0  0  0  0  0  0  0  0
   47.7000   37.1370   28.9680 C   0  0  0  0  0  0  0  0  0  0  0  0
   48.1000   35.7490   29.2620 C   0  0  0  0  0  0  0  0  0  0  0  0
   48.6310   35.3460   30.5120 C   0  0  0  0  0  0  0  0  0  0  0  0
   47.8390   35.3710   31.7540 C   0  0  0  0  0  0  0  0  0  0  0  0
   47.6350   33.9860   32.3870 C   0  0  0  0  0  0  0  0  0  0  0  0
   46.9970   33.9550   33.7220 C   0  0  0  0  0  0  0  0  0  0  0  0
   45.4750   33.9240   33.7750 C   0  0  0  0  0  0  0  0  0  0  0  0
   44.8810   34.4650   34.7440 O   0  0  0  0  0  0  0  0  0  0  0  0
   44.8500   33.3790   32.8300 O   0  0  0  0  0  0  0  0  0  0  0  0
   47.0851   35.4148   26.3338 H   0  0  0  0  0  0  0  0  0  0  0  0
   46.2282   36.3715   25.0780 H   0  0  0  0  0  0  0  0  0  0  0  0
   48.0227   36.2926   25.0780 H   0  0  0  0  0  0  0  0  0  0  0  0
   47.3836   38.3358   25.9002 H   0  0  0  0  0  0  0  0  0  0  0  0
   46.2092   37.4220   27.0832 H   0  0  0  0  0  0  0  0  0  0  0  0
   48.9696   37.0296   27.3435 H   0  0  0  0  0  0  0  0  0  0  0  0
   48.1575   38.6817   27.7592 H   0  0  0  0  0  0  0  0  0  0  0  0
   48.1815   37.7985   29.7032 H   0  0  0  0  0  0  0  0  0  0  0  0
   46.6019   37.1693   29.0230 H   0  0  0  0  0  0  0  0  0  0  0  0
   47.2015   35.1348   29.1026 H   0  0  0  0  0  0  0  0  0  0  0  0
   48.9729   35.6282   28.6037 H   0  0  0  0  0  0  0  0  0  0  0  0
   48.9621   34.3051   30.3819 H   0  0  0  0  0  0  0  0  0  0  0  0
   49.3762   36.1320   30.7042 H   0  0  0  0  0  0  0  0  0  0  0  0
   48.3565   36.0125   32.4825 H   0  0  0  0  0  0  0  0  0  0  0  0
   46.8417   35.7530   31.4905 H   0  0  0  0  0  0  0  0  0  0  0  0
   47.0071   33.3958   31.7033 H   0  0  0  0  0  0  0  0  0  0  0  0
   48.6478   33.5851   32.5402 H   0  0  0  0  0  0  0  0  0  0  0  0
   47.3629   33.0568   34.2409 H   0  0  0  0  0  0  0  0  0  0  0  0
   47.2735   34.9131   34.1864 H   0  0  0  0  0  0  0  0  0  0  0  0
   45.1010   33.5740   31.8920 H   0  0  0  0  0  0  0  0  0  0  0  0
  1  2  1  0
  2  3  1  0
  3  4  1  0
  4  5  1  0
  5  6  1  0
  6  7  1  0
  7  8  1  0
  8  9  1  0
  9 10  1  0
 10 11  2  0
 10 12  1  0
  1 13  1  0
  1 14  1  0
  1 15  1  0
  2 16  1  0
  2 17  1  0
  3 18  1  0
  3 19  1  0
  4 20  1  0
  4 21  1  0
  5 22  1  0
  5 23  1  0
  6 24  1  0
  6 25  1  0
  7 26  1  0
  7 27  1  0
  8 28  1  0
  8 29  1  0
  9 30  1  0
  9 31  1  0
 12 32  1  0
M  END
>  <meeko>  (19) 
{"is_sidechain": [false], "free_energy": -4.079, "intermolecular_energy": -6.627, "internal_energy": -0.288}

$$$$
DKA_neutral_focused_run01
     RDKit          3D

 32 31  0  0  0  0  0  0  0  0999 V2000
   49.4580   35.6880   32.4130 C   0  0  0  0  0  0  0  0  0  0  0  0
   49.9140   35.5620   31.0540 C   0  0  0  0  0  0  0  0  0  0  0  0
   49.0460   35.6280   29.9630 C   0  0  0  0  0  0  0  0  0  0  0  0
   47.7180   36.2230   30.0930 C   0  0  0  0  0  0  0  0  0  0  0  0
   47.4330   37.2810   29.1070 C   0  0  0  0  0  0  0  0  0  0  0  0
   48.3340   37.6380   28.0740 C   0  0  0  0  0  0  0  0  0  0  0  0
   47.8980   37.8610   26.6850 C   0  0  0  0  0  0  0  0  0  0  0  0
   47.0470   36.7180   26.1120 C   0  0  0  0  0  0  0  0  0  0  0  0
   47.7320   35.4240   25.8970 C   0  0  0  0  0  0  0  0  0  0  0  0
   47.0390   34.1660   26.4030 C   0  0  0  0  0  0  0  0  0  0  0  0
   46.8570   34.0180   27.6400 O   0  0  0  0  0  0  0  0  0  0  0  0
   46.6400   33.3190   25.5640 O   0  0  0  0  0  0  0  0  0  0  0  0
   50.2859   35.4592   33.1002 H   0  0  0  0  0  0  0  0  0  0  0  0
   49.1090   36.7162   32.5888 H   0  0  0  0  0  0  0  0  0  0  0  0
   48.6306   34.9848   32.5888 H   0  0  0  0  0  0  0  0  0  0  0  0
   50.6540   36.3620   30.9046 H   0  0  0  0  0  0  0  0  0  0  0  0
   50.2382   34.5114   31.0212 H   0  0  0  0  0  0  0  0  0  0  0  0
   49.5691   36.1983   29.1812 H   0  0  0  0  0  0  0  0  0  0  0  0
   48.8189   34.5691   29.7702 H   0  0  0  0  0  0  0  0  0  0  0  0
   46.9692   35.4265   29.9710 H   0  0  0  0  0  0  0  0  0  0  0  0
   47.6781   36.6955   31.0855 H   0  0  0  0  0  0  0  0  0  0  0  0
   46.5000   36.9841   28.6056 H   0  0  0  0  0  0  0  0  0  0  0  0
   47.4559   38.1812   29.7387 H   0  0  0  0  0  0  0  0  0  0  0  0
   48.8140   38.5734   28.3973 H   0  0  0  0  0  0  0  0  0  0  0  0
   48.9383   36.7240   27.9764 H   0  0  0  0  0  0  0  0  0  0  0  0
   47.3037   38.7861   26.6522 H   0  0  0  0  0  0  0  0  0  0  0  0
   48.8075   37.9232   26.0695 H   0  0  0  0  0  0  0  0  0  0  0  0
   46.2129   36.5423   26.8073 H   0  0  0  0  0  0  0  0  0  0  0  0
   46.7454   37.0560   25.1096 H   0  0  0  0  0  0  0  0  0  0  0  0
   47.8786   35.3055   24.8133 H   0  0  0  0  0  0  0  0  0  0  0  0
   48.6537   35.4938   26.4933 H   0  0  0  0  0  0  0  0  0  0  0  0
   46.7170   33.5070   24.5960 H   0  0  0  0  0  0  0  0  0  0  0  0
  1  2  1  0
  2  3  1  0
  3  4  1  0
  4  5  1  0
  5  6  1  0
  6  7  1  0
  7  8  1  0
  8  9  1  0
  9 10  1  0
 10 11  2  0
 10 12  1  0
  1 13  1  0
  1 14  1  0
  1 15  1  0
  2 16  1  0
  2 17  1  0
  3 18  1  0
  3 19  1  0
  4 20  1  0
  4 21  1  0
  5 22  1  0
  5 23  1  0
  6 24  1  0
  6 25  1  0
  7 26  1  0
  7 27  1  0
  8 28  1  0
  8 29  1  0
  9 30  1  0
  9 31  1  0
 12 32  1  0
M  END
>  <meeko>  (20) 
{"is_sidechain": [false], "free_energy": -4.032, "intermolecular_energy": -6.126, "internal_energy": -0.719}

$$$$
