DKA_redock_run01
     RDKit          3D

 31 30  0  0  0  0  0  0  0  0999 V2000
   50.2410   32.7000   25.2060 C   0  0  0  0  0  0  0  0  0  0  0  0
   48.8270   32.8630   24.9940 C   0  0  0  0  0  0  0  0  0  0  0  0
   48.0040   33.5290   25.9030 C   0  0  0  0  0  0  0  0  0  0  0  0
   46.6730   33.9880   25.5130 C   0  0  0  0  0  0  0  0  0  0  0  0
   46.5890   35.4370   25.2500 C   0  0  0  0  0  0  0  0  0  0  0  0
   47.5110   36.3730   25.7780 C   0  0  0  0  0  0  0  0  0  0  0  0
   47.0840   37.5970   26.4780 C   0  0  0  0  0  0  0  0  0  0  0  0
   48.0900   38.0940   27.5270 C   0  0  0  0  0  0  0  0  0  0  0  0
   48.6350   37.0780   28.4560 C   0  0  0  0  0  0  0  0  0  0  0  0
   47.6730   36.4480   29.4550 C   0  0  0  0  0  0  0  0  0  0  0  0
   47.4100   35.2210   29.3670 O   0  0  0  0  0  0  0  0  0  0  0  0
   47.1870   37.1710   30.3620 O   0  0  0  0  0  0  0  0  0  0  0  0
   50.4495   32.6760   26.2858 H   0  0  0  0  0  0  0  0  0  0  0  0
   50.5743   31.7575   24.7471 H   0  0  0  0  0  0  0  0  0  0  0  0
   50.7800   33.5420   24.7471 H   0  0  0  0  0  0  0  0  0  0  0  0
   48.7211   33.3969   24.0381 H   0  0  0  0  0  0  0  0  0  0  0  0
   48.4656   31.8276   25.0796 H   0  0  0  0  0  0  0  0  0  0  0  0
   47.8633   32.8481   26.7554 H   0  0  0  0  0  0  0  0  0  0  0  0
   48.5450   34.4710   26.0758 H   0  0  0  0  0  0  0  0  0  0  0  0
   46.3773   33.4531   24.5984 H   0  0  0  0  0  0  0  0  0  0  0  0
   46.0044   33.7802   26.3614 H   0  0  0  0  0  0  0  0  0  0  0  0
   46.6361   35.5494   24.1568 H   0  0  0  0  0  0  0  0  0  0  0  0
   45.6700   35.7052   25.7917 H   0  0  0  0  0  0  0  0  0  0  0  0
   48.1370   35.8162   26.4908 H   0  0  0  0  0  0  0  0  0  0  0  0
   47.9643   36.7831   24.8635 H   0  0  0  0  0  0  0  0  0  0  0  0
   46.9407   38.3917   25.7310 H   0  0  0  0  0  0  0  0  0  0  0  0
   46.1559   37.3518   27.0150 H   0  0  0  0  0  0  0  0  0  0  0  0
   48.9378   38.5438   26.9896 H   0  0  0  0  0  0  0  0  0  0  0  0
   47.5261   38.7941   28.1610 H   0  0  0  0  0  0  0  0  0  0  0  0
   49.0544   36.2649   27.8453 H   0  0  0  0  0  0  0  0  0  0  0  0
   49.3611   37.6259   29.0746 H   0  0  0  0  0  0  0  0  0  0  0  0
  1  2  1  0
  2  3  1  0
  3  4  1  0
  4  5  1  0
  5  6  1  0
  6  7  1  0
  7  8  1  0
  8  9  1  0
  9 10  1  0
 10 11  2  0
 10 12  1  0
  1 13  1  0
  1 14  1  0
  1 15  1  0
  2 16  1  0
  2 17  1  0
  3 18  1  0
  3 19  1  0
  4 20  1  0
  4 21  1  0
  5 22  1  0
  5 23  1  0
  6 24  1  0
  6 25  1  0
  7 26  1  0
  7 27  1  0
  8 28  1  0
  8 29  1  0
  9 30  1  0
  9 31  1  0
M  CHG  1  12  -1
M  END
>  <meeko>  (1) 
{"is_sidechain": [false], "free_energy": -4.868, "intermolecular_energy": -7.144, "internal_energy": -0.586}

$$$$
DKA_redock_run01
     RDKit          3D

 31 30  0  0  0  0  0  0  0  0999 V2000
   45.7310   34.4220   24.6650 C   0  0  0  0  0  0  0  0  0  0  0  0
   46.6040   34.6560   25.7850 C   0  0  0  0  0  0  0  0  0  0  0  0
   47.4920   35.7310   25.8330 C   0  0  0  0  0  0  0  0  0  0  0  0
   47.0220   37.0810   26.1350 C   0  0  0  0  0  0  0  0  0  0  0  0
   48.0140   37.9230   26.8280 C   0  0  0  0  0  0  0  0  0  0  0  0
   48.3630   37.7460   28.1890 C   0  0  0  0  0  0  0  0  0  0  0  0
   47.4460   37.1370   29.1690 C   0  0  0  0  0  0  0  0  0  0  0  0
   47.8730   35.7340   29.6270 C   0  0  0  0  0  0  0  0  0  0  0  0
   48.5470   35.6430   30.9420 C   0  0  0  0  0  0  0  0  0  0  0  0
   47.6770   35.7410   32.1880 C   0  0  0  0  0  0  0  0  0  0  0  0
   47.9610   36.5900   33.0730 O   0  0  0  0  0  0  0  0  0  0  0  0
   46.6770   34.9840   32.2860 O   0  0  0  0  0  0  0  0  0  0  0  0
   44.7290   34.1534   25.0310 H   0  0  0  0  0  0  0  0  0  0  0  0
   45.6658   35.3344   24.0540 H   0  0  0  0  0  0  0  0  0  0  0  0
   46.1309   33.5993   24.0540 H   0  0  0  0  0  0  0  0  0  0  0  0
   45.9512   34.7599   26.6643 H   0  0  0  0  0  0  0  0  0  0  0  0
   47.2911   33.7996   25.7173 H   0  0  0  0  0  0  0  0  0  0  0  0
   48.2429   35.4827   26.5975 H   0  0  0  0  0  0  0  0  0  0  0  0
   47.8240   35.8180   24.7879 H   0  0  0  0  0  0  0  0  0  0  0  0
   46.7525   37.5727   25.1886 H   0  0  0  0  0  0  0  0  0  0  0  0
   46.1656   36.9735   26.8170 H   0  0  0  0  0  0  0  0  0  0  0  0
   48.9499   37.8179   26.2596 H   0  0  0  0  0  0  0  0  0  0  0  0
   47.4946   38.8921   26.8595 H   0  0  0  0  0  0  0  0  0  0  0  0
   49.2709   37.1250   28.1932 H   0  0  0  0  0  0  0  0  0  0  0  0
   48.4157   38.7854   28.5452 H   0  0  0  0  0  0  0  0  0  0  0  0
   47.3979   37.7908   30.0523 H   0  0  0  0  0  0  0  0  0  0  0  0
   46.4705   37.0295   28.6722 H   0  0  0  0  0  0  0  0  0  0  0  0
   46.9697   35.1078   29.6708 H   0  0  0  0  0  0  0  0  0  0  0  0
   48.6232   35.4049   28.8929 H   0  0  0  0  0  0  0  0  0  0  0  0
   49.0671   34.6744   30.9790 H   0  0  0  0  0  0  0  0  0  0  0  0
   49.1973   36.5292   30.9847 H   0  0  0  0  0  0  0  0  0  0  0  0
  1  2  1  0
  2  3  1  0
  3  4  1  0
  4  5  1  0
  5  6  1  0
  6  7  1  0
  7  8  1  0
  8  9  1  0
  9 10  1  0
 10 11  2  0
 10 12  1  0
  1 13  1  0
  1 14  1  0
  1 15  1  0
  2 16  1  0
  2 17  1  0
  3 18  1  0
  3 19  1  0
  4 20  1  0
  4 21  1  0
  5 22  1  0
  5 23  1  0
  6 24  1  0
  6 25  1  0
  7 26  1  0
  7 27  1  0
  8 28  1  0
  8 29  1  0
  9 30  1  0
  9 31  1  0
M  CHG  1  12  -1
M  END
>  <meeko>  (2) 
{"is_sidechain": [false], "free_energy": -4.862, "intermolecular_energy": -7.183, "internal_energy": -0.54}

$$$$
DKA_redock_run01
     RDKit          3D

 31 30  0  0  0  0  0  0  0  0999 V2000
   49.4560   32.6980   25.1140 C   0  0  0  0  0  0  0  0  0  0  0  0
   48.6520   33.8280   25.4990 C   0  0  0  0  0  0  0  0  0  0  0  0
   47.3020   33.9370   25.1650 C   0  0  0  0  0  0  0  0  0  0  0  0
   46.5250   35.1130   25.5510 C   0  0  0  0  0  0  0  0  0  0  0  0
   47.3150   36.3560   25.6320 C   0  0  0  0  0  0  0  0  0  0  0  0
   47.1190   37.3330   26.6380 C   0  0  0  0  0  0  0  0  0  0  0  0
   48.0780   37.5450   27.7360 C   0  0  0  0  0  0  0  0  0  0  0  0
   47.5450   37.1280   29.1140 C   0  0  0  0  0  0  0  0  0  0  0  0
   48.2470   36.0120   29.7870 C   0  0  0  0  0  0  0  0  0  0  0  0
   48.1840   34.6400   29.1290 C   0  0  0  0  0  0  0  0  0  0  0  0
   49.2510   34.0040   28.9270 O   0  0  0  0  0  0  0  0  0  0  0  0
   47.0580   34.1670   28.8300 O   0  0  0  0  0  0  0  0  0  0  0  0
   49.8217   32.1841   26.0152 H   0  0  0  0  0  0  0  0  0  0  0  0
   48.8486   32.0025   24.5163 H   0  0  0  0  0  0  0  0  0  0  0  0
   50.3122   33.0438   24.5163 H   0  0  0  0  0  0  0  0  0  0  0  0
   48.6998   33.8767   26.5969 H   0  0  0  0  0  0  0  0  0  0  0  0
   49.0979   34.6359   24.9002 H   0  0  0  0  0  0  0  0  0  0  0  0
   47.2444   33.8699   24.0686 H   0  0  0  0  0  0  0  0  0  0  0  0
   46.8396   33.1351   25.7593 H   0  0  0  0  0  0  0  0  0  0  0  0
   45.7267   35.2587   24.8084 H   0  0  0  0  0  0  0  0  0  0  0  0
   46.1350   34.9183   26.5609 H   0  0  0  0  0  0  0  0  0  0  0  0
   48.3657   36.0416   25.7163 H   0  0  0  0  0  0  0  0  0  0  0  0
   46.9707   36.8928   24.7357 H   0  0  0  0  0  0  0  0  0  0  0  0
   47.0363   38.2971   26.1149 H   0  0  0  0  0  0  0  0  0  0  0  0
   46.2479   36.9301   27.1755 H   0  0  0  0  0  0  0  0  0  0  0  0
   48.9842   36.9590   27.5229 H   0  0  0  0  0  0  0  0  0  0  0  0
   48.2768   38.6259   27.7833 H   0  0  0  0  0  0  0  0  0  0  0  0
   47.6042   38.0059   29.7742 H   0  0  0  0  0  0  0  0  0  0  0  0
   46.5247   36.7599   28.9307 H   0  0  0  0  0  0  0  0  0  0  0  0
   49.3082   36.2907   29.8659 H   0  0  0  0  0  0  0  0  0  0  0  0
   47.7195   35.8871   30.7442 H   0  0  0  0  0  0  0  0  0  0  0  0
  1  2  1  0
  2  3  1  0
  3  4  1  0
  4  5  1  0
  5  6  1  0
  6  7  1  0
  7  8  1  0
  8  9  1  0
  9 10  1  0
 10 11  2  0
 10 12  1  0
  1 13  1  0
  1 14  1  0
  1 15  1  0
  2 16  1  0
  2 17  1  0
  3 18  1  0
  3 19  1  0
  4 20  1  0
  4 21  1  0
  5 22  1  0
  5 23  1  0
  6 24  1  0
  6 25  1  0
  7 26  1  0
  7 27  1  0
  8 28  1  0
  8 29  1  0
  9 30  1  0
  9 31  1  0
M  CHG  1  12  -1
M  END
>  <meeko>  (3) 
{"is_sidechain": [false], "free_energy": -4.808, "intermolecular_energy": -6.831, "internal_energy": -0.812}

$$$$
DKA_redock_run01
     RDKit          3D

 31 30  0  0  0  0  0  0  0  0999 V2000
   46.6560   33.6820   26.9240 C   0  0  0  0  0  0  0  0  0  0  0  0
   46.2460   34.2670   25.6740 C   0  0  0  0  0  0  0  0  0  0  0  0
   46.6310   35.5510   25.2840 C   0  0  0  0  0  0  0  0  0  0  0  0
   47.7810   36.2100   25.8990 C   0  0  0  0  0  0  0  0  0  0  0  0
   47.4310   37.3650   26.7460 C   0  0  0  0  0  0  0  0  0  0  0  0
   48.0460   37.6220   27.9950 C   0  0  0  0  0  0  0  0  0  0  0  0
   48.1800   36.5920   29.0400 C   0  0  0  0  0  0  0  0  0  0  0  0
   47.2630   36.8160   30.2520 C   0  0  0  0  0  0  0  0  0  0  0  0
   47.5560   36.0150   31.4610 C   0  0  0  0  0  0  0  0  0  0  0  0
   46.7940   36.3570   32.7350 C   0  0  0  0  0  0  0  0  0  0  0  0
   47.0870   37.4070   33.3650 O   0  0  0  0  0  0  0  0  0  0  0  0
   45.8700   35.5910   33.1090 O   0  0  0  0  0  0  0  0  0  0  0  0
   46.2436   34.2704   27.7569 H   0  0  0  0  0  0  0  0  0  0  0  0
   46.2833   32.6489   26.9851 H   0  0  0  0  0  0  0  0  0  0  0  0
   47.7543   33.6798   26.9851 H   0  0  0  0  0  0  0  0  0  0  0  0
   46.6055   33.5881   24.8867 H   0  0  0  0  0  0  0  0  0  0  0  0
   45.1643   34.3935   25.8287 H   0  0  0  0  0  0  0  0  0  0  0  0
   46.8389   35.5012   24.2050 H   0  0  0  0  0  0  0  0  0  0  0  0
   45.7872   36.1703   25.6222 H   0  0  0  0  0  0  0  0  0  0  0  0
   48.3096   35.4728   26.5213 H   0  0  0  0  0  0  0  0  0  0  0  0
   48.4023   36.5959   25.0774 H   0  0  0  0  0  0  0  0  0  0  0  0
   47.6124   38.2581   26.1299 H   0  0  0  0  0  0  0  0  0  0  0  0
   46.4070   37.1079   27.0548 H   0  0  0  0  0  0  0  0  0  0  0  0
   49.0675   37.9612   27.7681 H   0  0  0  0  0  0  0  0  0  0  0  0
   47.3324   38.3198   28.4575 H   0  0  0  0  0  0  0  0  0  0  0  0
   47.9371   35.6148   28.5971 H   0  0  0  0  0  0  0  0  0  0  0  0
   49.2154   36.6415   29.4080 H   0  0  0  0  0  0  0  0  0  0  0  0
   47.3313   37.8780   30.5305 H   0  0  0  0  0  0  0  0  0  0  0  0
   46.2643   36.4918   29.9241 H   0  0  0  0  0  0  0  0  0  0  0  0
   47.3392   34.9639   31.2199 H   0  0  0  0  0  0  0  0  0  0  0  0
   48.6073   36.2378   31.6958 H   0  0  0  0  0  0  0  0  0  0  0  0
  1  2  1  0
  2  3  1  0
  3  4  1  0
  4  5  1  0
  5  6  1  0
  6  7  1  0
  7  8  1  0
  8  9  1  0
  9 10  1  0
 10 11  2  0
 10 12  1  0
  1 13  1  0
  1 14  1  0
  1 15  1  0
  2 16  1  0
  2 17  1  0
  3 18  1  0
  3 19  1  0
  4 20  1  0
  4 21  1  0
  5 22  1  0
  5 23  1  0
  6 24  1  0
  6 25  1  0
  7 26  1  0
  7 27  1  0
  8 28  1  0
  8 29  1  0
  9 30  1  0
  9 31  1  0
M  CHG  1  12  -1
M  END
>  <meeko>  (4) 
{"is_sidechain": [false], "free_energy": -4.739, "intermolecular_energy": -7.038, "internal_energy": -0.503}

$$$$
DKA_redock_run01
     RDKit          3D

 31 30  0  0  0  0  0  0  0  0999 V2000
   48.0280   34.8920   29.4040 C   0  0  0  0  0  0  0  0  0  0  0  0
   48.4690   36.2610   29.3710 C   0  0  0  0  0  0  0  0  0  0  0  0
   47.6910   37.2880   28.8350 C   0  0  0  0  0  0  0  0  0  0  0  0
   48.2120   38.1520   27.7780 C   0  0  0  0  0  0  0  0  0  0  0  0
   47.6520   37.8740   26.4430 C   0  0  0  0  0  0  0  0  0  0  0  0
   47.8990   36.6720   25.7360 C   0  0  0  0  0  0  0  0  0  0  0  0
   46.8990   35.5950   25.6320 C   0  0  0  0  0  0  0  0  0  0  0  0
   47.5090   34.1880   25.5420 C   0  0  0  0  0  0  0  0  0  0  0  0
   48.9380   34.0620   25.9040 C   0  0  0  0  0  0  0  0  0  0  0  0
   49.7440   32.9640   25.2230 C   0  0  0  0  0  0  0  0  0  0  0  0
   50.9930   32.9290   25.3780 O   0  0  0  0  0  0  0  0  0  0  0  0
   49.1330   32.1010   24.5430 O   0  0  0  0  0  0  0  0  0  0  0  0
   47.9229   34.5657   30.4492 H   0  0  0  0  0  0  0  0  0  0  0  0
   47.0571   34.8071   28.8940 H   0  0  0  0  0  0  0  0  0  0  0  0
   48.7668   34.2564   28.8940 H   0  0  0  0  0  0  0  0  0  0  0  0
   48.6685   36.5426   30.4155 H   0  0  0  0  0  0  0  0  0  0  0  0
   49.3014   36.2118   28.6536 H   0  0  0  0  0  0  0  0  0  0  0  0
   46.7824   36.8155   28.4336 H   0  0  0  0  0  0  0  0  0  0  0  0
   47.5849   37.9799   29.6835 H   0  0  0  0  0  0  0  0  0  0  0  0
   47.9809   39.1952   28.0392 H   0  0  0  0  0  0  0  0  0  0  0  0
   49.2932   37.9595   27.7149 H   0  0  0  0  0  0  0  0  0  0  0  0
   46.5596   37.9413   26.5531 H   0  0  0  0  0  0  0  0  0  0  0  0
   48.1891   38.6071   25.8232 H   0  0  0  0  0  0  0  0  0  0  0  0
   48.1374   36.9682   24.7038 H   0  0  0  0  0  0  0  0  0  0  0  0
   48.6746   36.2003   26.3572 H   0  0  0  0  0  0  0  0  0  0  0  0
   46.2517   35.6360   26.5204 H   0  0  0  0  0  0  0  0  0  0  0  0
   46.3434   35.7633   24.6976 H   0  0  0  0  0  0  0  0  0  0  0  0
   46.9354   33.5319   26.2132 H   0  0  0  0  0  0  0  0  0  0  0  0
   47.4538   33.9151   24.4778 H   0  0  0  0  0  0  0  0  0  0  0  0
   49.4230   35.0207   25.6680 H   0  0  0  0  0  0  0  0  0  0  0  0
   48.9329   33.7852   26.9686 H   0  0  0  0  0  0  0  0  0  0  0  0
  1  2  1  0
  2  3  1  0
  3  4  1  0
  4  5  1  0
  5  6  1  0
  6  7  1  0
  7  8  1  0
  8  9  1  0
  9 10  1  0
 10 11  2  0
 10 12  1  0
  1 13  1  0
  1 14  1  0
  1 15  1  0
  2 16  1  0
  2 17  1  0
  3 18  1  0
  3 19  1  0
  4 20  1  0
  4 21  1  0
  5 22  1  0
  5 23  1  0
  6 24  1  0
  6 25  1  0
  7 26  1  0
  7 27  1  0
  8 28  1  0
  8 29  1  0
  9 30  1  0
  9 31  1  0
M  CHG  1  12  -1
M  END
>  <meeko>  (5) 
{"is_sidechain": [false], "free_energy": -4.608, "intermolecular_energy": -6.466, "internal_energy": -0.882}

$$$$
DKA_redock_run01
     RDKit          3D

 31 30  0  0  0  0  0  0  0  0999 V2000
   48.2020   35.8930   29.4580 C   0  0  0  0  0  0  0  0  0  0  0  0
   47.6440   37.0490   28.8070 C   0  0  0  0  0  0  0  0  0  0  0  0
   48.3710   37.8280   27.9060 C   0  0  0  0  0  0  0  0  0  0  0  0
   48.0000   37.8870   26.4940 C   0  0  0  0  0  0  0  0  0  0  0  0
   46.9030   36.9760   26.1220 C   0  0  0  0  0  0  0  0  0  0  0  0
   47.1150   35.7310   25.4800 C   0  0  0  0  0  0  0  0  0  0  0  0
   46.5580   34.4680   25.9960 C   0  0  0  0  0  0  0  0  0  0  0  0
   47.6230   33.4140   26.3350 C   0  0  0  0  0  0  0  0  0  0  0  0
   49.0260   33.7660   26.0220 C   0  0  0  0  0  0  0  0  0  0  0  0
   49.8210   32.7950   25.1590 C   0  0  0  0  0  0  0  0  0  0  0  0
   49.2070   31.9530   24.4530 O   0  0  0  0  0  0  0  0  0  0  0  0
   51.0760   32.8810   25.1540 O   0  0  0  0  0  0  0  0  0  0  0  0
   48.1402   36.0210   30.5488 H   0  0  0  0  0  0  0  0  0  0  0  0
   47.6373   34.9968   29.1614 H   0  0  0  0  0  0  0  0  0  0  0  0
   49.2550   35.7777   29.1614 H   0  0  0  0  0  0  0  0  0  0  0  0
   46.7597   36.6929   28.2581 H   0  0  0  0  0  0  0  0  0  0  0  0
   47.5162   37.7424   29.6513 H   0  0  0  0  0  0  0  0  0  0  0  0
   48.3326   38.8606   28.2831 H   0  0  0  0  0  0  0  0  0  0  0  0
   49.3468   37.3209   27.8793 H   0  0  0  0  0  0  0  0  0  0  0  0
   47.6886   38.9160   26.2613 H   0  0  0  0  0  0  0  0  0  0  0  0
   48.8836   37.5707   25.9202 H   0  0  0  0  0  0  0  0  0  0  0  0
   46.3695   36.7475   27.0564 H   0  0  0  0  0  0  0  0  0  0  0  0
   46.4023   37.5493   25.3278 H   0  0  0  0  0  0  0  0  0  0  0  0
   46.7219   35.8433   24.4588 H   0  0  0  0  0  0  0  0  0  0  0  0
   48.1939   35.5800   25.6325 H   0  0  0  0  0  0  0  0  0  0  0  0
   45.9854   34.6887   26.9089 H   0  0  0  0  0  0  0  0  0  0  0  0
   45.9305   34.0446   25.1979 H   0  0  0  0  0  0  0  0  0  0  0  0
   47.5621   33.2132   27.4148 H   0  0  0  0  0  0  0  0  0  0  0  0
   47.3907   32.5502   25.6948 H   0  0  0  0  0  0  0  0  0  0  0  0
   49.0139   34.7349   25.5014 H   0  0  0  0  0  0  0  0  0  0  0  0
   49.5393   33.7596   26.9949 H   0  0  0  0  0  0  0  0  0  0  0  0
  1  2  1  0
  2  3  1  0
  3  4  1  0
  4  5  1  0
  5  6  1  0
  6  7  1  0
  7  8  1  0
  8  9  1  0
  9 10  1  0
 10 11  2  0
 10 12  1  0
  1 13  1  0
  1 14  1  0
  1 15  1  0
  2 16  1  0
  2 17  1  0
  3 18  1  0
  3 19  1  0
  4 20  1  0
  4 21  1  0
  5 22  1  0
  5 23  1  0
  6 24  1  0
  6 25  1  0
  7 26  1  0
  7 27  1  0
  8 28  1  0
  8 29  1  0
  9 30  1  0
  9 31  1  0
M  CHG  1  12  -1
M  END
>  <meeko>  (6) 
{"is_sidechain": [false], "free_energy": -4.594, "intermolecular_energy": -6.445, "internal_energy": -0.883}

$$$$
DKA_redock_run01
     RDKit          3D

 31 30  0  0  0  0  0  0  0  0999 V2000
   48.5890   36.2750   29.5770 C   0  0  0  0  0  0  0  0  0  0  0  0
   47.7500   37.1490   28.7990 C   0  0  0  0  0  0  0  0  0  0  0  0
   48.2490   37.9540   27.7760 C   0  0  0  0  0  0  0  0  0  0  0  0
   47.7290   37.8480   26.4140 C   0  0  0  0  0  0  0  0  0  0  0  0
   47.7390   36.4770   25.8720 C   0  0  0  0  0  0  0  0  0  0  0  0
   46.5590   35.7620   25.5550 C   0  0  0  0  0  0  0  0  0  0  0  0
   46.5720   34.5260   24.7520 C   0  0  0  0  0  0  0  0  0  0  0  0
   46.6200   33.2420   25.5930 C   0  0  0  0  0  0  0  0  0  0  0  0
   46.1330   33.3440   26.9870 C   0  0  0  0  0  0  0  0  0  0  0  0
   47.1610   33.2160   28.1040 C   0  0  0  0  0  0  0  0  0  0  0  0
   46.7660   33.0860   29.2920 O   0  0  0  0  0  0  0  0  0  0  0  0
   48.3820   33.2180   27.8020 O   0  0  0  0  0  0  0  0  0  0  0  0
   48.4146   36.4567   30.6478 H   0  0  0  0  0  0  0  0  0  0  0  0
   48.3488   35.2283   29.3388 H   0  0  0  0  0  0  0  0  0  0  0  0
   49.6446   36.4723   29.3388 H   0  0  0  0  0  0  0  0  0  0  0  0
   46.9860   36.5067   28.3367 H   0  0  0  0  0  0  0  0  0  0  0  0
   47.4499   37.8972   29.5474 H   0  0  0  0  0  0  0  0  0  0  0  0
   48.0897   38.9957   28.0916 H   0  0  0  0  0  0  0  0  0  0  0  0
   49.2836   37.5961   27.6689 H   0  0  0  0  0  0  0  0  0  0  0  0
   46.6915   38.2134   26.4107 H   0  0  0  0  0  0  0  0  0  0  0  0
   48.3921   38.4478   25.7732 H   0  0  0  0  0  0  0  0  0  0  0  0
   48.3235   36.5239   24.9413 H   0  0  0  0  0  0  0  0  0  0  0  0
   48.1173   35.9046   26.7318 H   0  0  0  0  0  0  0  0  0  0  0  0
   46.0955   35.4964   26.5166 H   0  0  0  0  0  0  0  0  0  0  0  0
   46.0457   36.4630   24.8804 H   0  0  0  0  0  0  0  0  0  0  0  0
   45.6613   34.5031   24.1355 H   0  0  0  0  0  0  0  0  0  0  0  0
   47.4897   34.5469   24.1459 H   0  0  0  0  0  0  0  0  0  0  0  0
   46.0088   32.4845   25.0806 H   0  0  0  0  0  0  0  0  0  0  0  0
   47.6874   32.9898   25.6765 H   0  0  0  0  0  0  0  0  0  0  0  0
   45.6494   34.3260   27.0957 H   0  0  0  0  0  0  0  0  0  0  0  0
   45.4706   32.4753   27.1159 H   0  0  0  0  0  0  0  0  0  0  0  0
  1  2  1  0
  2  3  1  0
  3  4  1  0
  4  5  1  0
  5  6  1  0
  6  7  1  0
  7  8  1  0
  8  9  1  0
  9 10  1  0
 10 11  2  0
 10 12  1  0
  1 13  1  0
  1 14  1  0
  1 15  1  0
  2 16  1  0
  2 17  1  0
  3 18  1  0
  3 19  1  0
  4 20  1  0
  4 21  1  0
  5 22  1  0
  5 23  1  0
  6 24  1  0
  6 25  1  0
  7 26  1  0
  7 27  1  0
  8 28  1  0
  8 29  1  0
  9 30  1  0
  9 31  1  0
M  CHG  1  12  -1
M  END
>  <meeko>  (7) 
{"is_sidechain": [false], "free_energy": -4.572, "intermolecular_energy": -6.607, "internal_energy": -0.689}

$$$$
DKA_redock_run01
     RDKit          3D

 31 30  0  0  0  0  0  0  0  0999 V2000
   46.1930   32.3940   28.1020 C   0  0  0  0  0  0  0  0  0  0  0  0
   46.6080   33.5580   27.3660 C   0  0  0  0  0  0  0  0  0  0  0  0
   46.1700   33.8220   26.0680 C   0  0  0  0  0  0  0  0  0  0  0  0
   46.9210   34.7150   25.1890 C   0  0  0  0  0  0  0  0  0  0  0  0
   46.8700   36.1340   25.5870 C   0  0  0  0  0  0  0  0  0  0  0  0
   48.0220   36.8800   25.9390 C   0  0  0  0  0  0  0  0  0  0  0  0
   48.0620   37.7690   27.1130 C   0  0  0  0  0  0  0  0  0  0  0  0
   47.3950   37.1760   28.3630 C   0  0  0  0  0  0  0  0  0  0  0  0
   48.2600   36.3760   29.2580 C   0  0  0  0  0  0  0  0  0  0  0  0
   47.6550   35.8810   30.5650 C   0  0  0  0  0  0  0  0  0  0  0  0
   47.2510   36.7180   31.4130 O   0  0  0  0  0  0  0  0  0  0  0  0
   47.5510   34.6410   30.7500 O   0  0  0  0  0  0  0  0  0  0  0  0
   46.2654   32.5971   29.1807 H   0  0  0  0  0  0  0  0  0  0  0  0
   45.1521   32.1490   27.8441 H   0  0  0  0  0  0  0  0  0  0  0  0
   46.8441   31.5457   27.8441 H   0  0  0  0  0  0  0  0  0  0  0  0
   46.3069   34.4253   27.9719 H   0  0  0  0  0  0  0  0  0  0  0  0
   47.6766   33.3525   27.2049 H   0  0  0  0  0  0  0  0  0  0  0  0
   46.1129   32.8515   25.5534 H   0  0  0  0  0  0  0  0  0  0  0  0
   45.2349   34.3765   26.2356 H   0  0  0  0  0  0  0  0  0  0  0  0
   47.9732   34.3941   25.1877 H   0  0  0  0  0  0  0  0  0  0  0  0
   46.4552   34.6473   24.1948 H   0  0  0  0  0  0  0  0  0  0  0  0
   46.4092   36.6687   24.7433 H   0  0  0  0  0  0  0  0  0  0  0  0
   46.3453   36.0724   26.5518 H   0  0  0  0  0  0  0  0  0  0  0  0
   48.8284   36.1461   26.0842 H   0  0  0  0  0  0  0  0  0  0  0  0
   48.0864   37.5995   25.1095 H   0  0  0  0  0  0  0  0  0  0  0  0
   49.1146   37.9831   27.3501 H   0  0  0  0  0  0  0  0  0  0  0  0
   47.4973   38.6750   26.8480 H   0  0  0  0  0  0  0  0  0  0  0  0
   46.9870   38.0109   28.9516 H   0  0  0  0  0  0  0  0  0  0  0  0
   46.6401   36.4719   27.9830 H   0  0  0  0  0  0  0  0  0  0  0  0
   48.5906   35.4922   28.6927 H   0  0  0  0  0  0  0  0  0  0  0  0
   49.0600   37.0662   29.5640 H   0  0  0  0  0  0  0  0  0  0  0  0
  1  2  1  0
  2  3  1  0
  3  4  1  0
  4  5  1  0
  5  6  1  0
  6  7  1  0
  7  8  1  0
  8  9  1  0
  9 10  1  0
 10 11  2  0
 10 12  1  0
  1 13  1  0
  1 14  1  0
  1 15  1  0
  2 16  1  0
  2 17  1  0
  3 18  1  0
  3 19  1  0
  4 20  1  0
  4 21  1  0
  5 22  1  0
  5 23  1  0
  6 24  1  0
  6 25  1  0
  7 26  1  0
  7 27  1  0
  8 28  1  0
  8 29  1  0
  9 30  1  0
  9 31  1  0
M  CHG  1  12  -1
M  END
>  <meeko>  (8) 
{"is_sidechain": [false], "free_energy": -4.549, "intermolecular_energy": -6.498, "internal_energy": -0.764}

$$$$
DKA_redock_run01
     RDKit          3D

 31 30  0  0  0  0  0  0  0  0999 V2000
   47.1020   35.8630   25.4630 C   0  0  0  0  0  0  0  0  0  0  0  0
   46.9540   37.1300   26.1300 C   0  0  0  0  0  0  0  0  0  0  0  0
   48.0460   37.8830   26.5620 C   0  0  0  0  0  0  0  0  0  0  0  0
   48.3890   37.9640   27.9800 C   0  0  0  0  0  0  0  0  0  0  0  0
   47.4540   37.2480   28.8670 C   0  0  0  0  0  0  0  0  0  0  0  0
   47.7950   36.0530   29.5470 C   0  0  0  0  0  0  0  0  0  0  0  0
   49.1110   35.8490   30.1780 C   0  0  0  0  0  0  0  0  0  0  0  0
   49.0890   34.8550   31.3490 C   0  0  0  0  0  0  0  0  0  0  0  0
   48.7900   35.4140   32.6860 C   0  0  0  0  0  0  0  0  0  0  0  0
   47.3610   35.8680   32.9570 C   0  0  0  0  0  0  0  0  0  0  0  0
   47.1530   37.0450   33.3510 O   0  0  0  0  0  0  0  0  0  0  0  0
   46.4220   35.0570   32.7520 O   0  0  0  0  0  0  0  0  0  0  0  0
   47.1955   35.0630   26.2121 H   0  0  0  0  0  0  0  0  0  0  0  0
   46.2197   35.6747   24.8336 H   0  0  0  0  0  0  0  0  0  0  0  0
   48.0039   35.8831   24.8336 H   0  0  0  0  0  0  0  0  0  0  0  0
   46.3928   37.7754   25.4382 H   0  0  0  0  0  0  0  0  0  0  0  0
   46.4963   36.8297   27.0841 H   0  0  0  0  0  0  0  0  0  0  0  0
   48.9297   37.4757   26.0490 H   0  0  0  0  0  0  0  0  0  0  0  0
   47.7384   38.9128   26.3277 H   0  0  0  0  0  0  0  0  0  0  0  0
   49.3927   37.5354   28.1177 H   0  0  0  0  0  0  0  0  0  0  0  0
   48.3393   39.0271   28.2583 H   0  0  0  0  0  0  0  0  0  0  0  0
   47.1651   37.9681   29.6468 H   0  0  0  0  0  0  0  0  0  0  0  0
   46.7046   36.8849   28.1482 H   0  0  0  0  0  0  0  0  0  0  0  0
   47.0505   35.9342   30.3480 H   0  0  0  0  0  0  0  0  0  0  0  0
   47.8249   35.3252   28.7227 H   0  0  0  0  0  0  0  0  0  0  0  0
   49.8068   35.4705   29.4147 H   0  0  0  0  0  0  0  0  0  0  0  0
   49.4241   36.8205   30.5879 H   0  0  0  0  0  0  0  0  0  0  0  0
   48.3261   34.0943   31.1269 H   0  0  0  0  0  0  0  0  0  0  0  0
   50.1158   34.4667   31.4196 H   0  0  0  0  0  0  0  0  0  0  0  0
   49.0361   34.6407   33.4286 H   0  0  0  0  0  0  0  0  0  0  0  0
   49.3913   36.3332   32.7454 H   0  0  0  0  0  0  0  0  0  0  0  0
  1  2  1  0
  2  3  1  0
  3  4  1  0
  4  5  1  0
  5  6  1  0
  6  7  1  0
  7  8  1  0
  8  9  1  0
  9 10  1  0
 10 11  2  0
 10 12  1  0
  1 13  1  0
  1 14  1  0
  1 15  1  0
  2 16  1  0
  2 17  1  0
  3 18  1  0
  3 19  1  0
  4 20  1  0
  4 21  1  0
  5 22  1  0
  5 23  1  0
  6 24  1  0
  6 25  1  0
  7 26  1  0
  7 27  1  0
  8 28  1  0
  8 29  1  0
  9 30  1  0
  9 31  1  0
M  CHG  1  12  -1
M  END
>  <meeko>  (9) 
{"is_sidechain": [false], "free_energy": -4.498, "intermolecular_energy": -6.737, "internal_energy": -0.451}

$$$$
DKA_redock_run01
     RDKit          3D

 31 30  0  0  0  0  0  0  0  0999 V2000
   47.2200   36.6770   26.0070 C   0  0  0  0  0  0  0  0  0  0  0  0
   47.7430   37.8790   26.6020 C   0  0  0  0  0  0  0  0  0  0  0  0
   48.1560   37.9400   27.9330 C   0  0  0  0  0  0  0  0  0  0  0  0
   47.7210   36.9350   28.9010 C   0  0  0  0  0  0  0  0  0  0  0  0
   48.8270   36.2130   29.5560 C   0  0  0  0  0  0  0  0  0  0  0  0
   48.6330   35.3200   30.6380 C   0  0  0  0  0  0  0  0  0  0  0  0
   47.3500   35.2070   31.3530 C   0  0  0  0  0  0  0  0  0  0  0  0
   47.2230   36.1580   32.5530 C   0  0  0  0  0  0  0  0  0  0  0  0
   46.0060   36.9990   32.6070 C   0  0  0  0  0  0  0  0  0  0  0  0
   44.8040   36.4520   33.3660 C   0  0  0  0  0  0  0  0  0  0  0  0
   44.2140   37.1890   34.1980 O   0  0  0  0  0  0  0  0  0  0  0  0
   44.4170   35.2810   33.1190 O   0  0  0  0  0  0  0  0  0  0  0  0
   46.9158   35.9778   26.7998 H   0  0  0  0  0  0  0  0  0  0  0  0
   46.3487   36.9257   25.3833 H   0  0  0  0  0  0  0  0  0  0  0  0
   47.9959   36.2090   25.3833 H   0  0  0  0  0  0  0  0  0  0  0  0
   48.6173   38.1630   25.9979 H   0  0  0  0  0  0  0  0  0  0  0  0
   46.8557   38.5291   26.6121 H   0  0  0  0  0  0  0  0  0  0  0  0
   49.2555   37.9084   27.9215 H   0  0  0  0  0  0  0  0  0  0  0  0
   47.6671   38.8556   28.2972 H   0  0  0  0  0  0  0  0  0  0  0  0
   47.1281   37.4383   29.6789 H   0  0  0  0  0  0  0  0  0  0  0  0
   47.1399   36.1865   28.3423 H   0  0  0  0  0  0  0  0  0  0  0  0
   49.3172   35.6274   28.7643 H   0  0  0  0  0  0  0  0  0  0  0  0
   49.3673   37.0367   30.0455 H   0  0  0  0  0  0  0  0  0  0  0  0
   48.8544   34.3156   30.2480 H   0  0  0  0  0  0  0  0  0  0  0  0
   49.2826   35.7582   31.4101 H   0  0  0  0  0  0  0  0  0  0  0  0
   46.5379   35.4308   30.6456 H   0  0  0  0  0  0  0  0  0  0  0  0
   47.2930   34.1823   31.7489 H   0  0  0  0  0  0  0  0  0  0  0  0
   47.2469   35.5467   33.4672 H   0  0  0  0  0  0  0  0  0  0  0  0
   48.0596   36.8651   32.4522 H   0  0  0  0  0  0  0  0  0  0  0  0
   46.2859   37.9531   33.0774 H   0  0  0  0  0  0  0  0  0  0  0  0
   45.6684   37.0693   31.5624 H   0  0  0  0  0  0  0  0  0  0  0  0
  1  2  1  0
  2  3  1  0
  3  4  1  0
  4  5  1  0
  5  6  1  0
  6  7  1  0
  7  8  1  0
  8  9  1  0
  9 10  1  0
 10 11  2  0
 10 12  1  0
  1 13  1  0
  1 14  1  0
  1 15  1  0
  2 16  1  0
  2 17  1  0
  3 18  1  0
  3 19  1  0
  4 20  1  0
  4 21  1  0
  5 22  1  0
  5 23  1  0
  6 24  1  0
  6 25  1  0
  7 26  1  0
  7 27  1  0
  8 28  1  0
  8 29  1  0
  9 30  1  0
  9 31  1  0
M  CHG  1  12  -1
M  END
>  <meeko>  (10) 
{"is_sidechain": [false], "free_energy": -4.379, "intermolecular_energy": -6.574, "internal_energy": -0.438}

$$$$
DKA_redock_run01
     RDKit          3D

 31 30  0  0  0  0  0  0  0  0999 V2000
   47.6870   36.9360   29.0830 C   0  0  0  0  0  0  0  0  0  0  0  0
   48.1200   37.6430   27.9070 C   0  0  0  0  0  0  0  0  0  0  0  0
   47.5090   37.4780   26.6640 C   0  0  0  0  0  0  0  0  0  0  0  0
   47.8760   36.3670   25.7880 C   0  0  0  0  0  0  0  0  0  0  0  0
   46.7250   35.6320   25.2330 C   0  0  0  0  0  0  0  0  0  0  0  0
   46.2620   34.4040   25.7660 C   0  0  0  0  0  0  0  0  0  0  0  0
   47.1560   33.4430   26.4350 C   0  0  0  0  0  0  0  0  0  0  0  0
   48.0750   32.6770   25.4720 C   0  0  0  0  0  0  0  0  0  0  0  0
   49.5170   33.0050   25.5290 C   0  0  0  0  0  0  0  0  0  0  0  0
   50.4800   32.0780   24.8000 C   0  0  0  0  0  0  0  0  0  0  0  0
   51.7180   32.2980   24.8670 O   0  0  0  0  0  0  0  0  0  0  0  0
   50.0110   31.0970   24.1680 O   0  0  0  0  0  0  0  0  0  0  0  0
   48.0194   37.4787   29.9802 H   0  0  0  0  0  0  0  0  0  0  0  0
   46.5894   36.8635   29.0839 H   0  0  0  0  0  0  0  0  0  0  0  0
   48.1212   35.9253   29.0839 H   0  0  0  0  0  0  0  0  0  0  0  0
   48.0387   38.7134   28.1473 H   0  0  0  0  0  0  0  0  0  0  0  0
   49.1112   37.1999   27.7307 H   0  0  0  0  0  0  0  0  0  0  0  0
   46.4301   37.3823   26.8557 H   0  0  0  0  0  0  0  0  0  0  0  0
   47.8605   38.3561   26.1024 H   0  0  0  0  0  0  0  0  0  0  0  0
   48.4661   36.7678   24.9507 H   0  0  0  0  0  0  0  0  0  0  0  0
   48.4420   35.6519   26.4031 H   0  0  0  0  0  0  0  0  0  0  0  0
   45.8716   36.3243   25.2823 H   0  0  0  0  0  0  0  0  0  0  0  0
   47.1190   35.3126   24.2569 H   0  0  0  0  0  0  0  0  0  0  0  0
   45.4871   34.6637   26.5023 H   0  0  0  0  0  0  0  0  0  0  0  0
   45.9824   33.8545   24.8550 H   0  0  0  0  0  0  0  0  0  0  0  0
   47.7848   33.9940   27.1498 H   0  0  0  0  0  0  0  0  0  0  0  0
   46.5141   32.6971   26.9266 H   0  0  0  0  0  0  0  0  0  0  0  0
   47.9680   31.6044   25.6912 H   0  0  0  0  0  0  0  0  0  0  0  0
   47.7501   32.9739   24.4639 H   0  0  0  0  0  0  0  0  0  0  0  0
   49.6427   34.0113   25.1029 H   0  0  0  0  0  0  0  0  0  0  0  0
   49.7843   32.9060   26.5914 H   0  0  0  0  0  0  0  0  0  0  0  0
  1  2  1  0
  2  3  1  0
  3  4  1  0
  4  5  1  0
  5  6  1  0
  6  7  1  0
  7  8  1  0
  8  9  1  0
  9 10  1  0
 10 11  2  0
 10 12  1  0
  1 13  1  0
  1 14  1  0
  1 15  1  0
  2 16  1  0
  2 17  1  0
  3 18  1  0
  3 19  1  0
  4 20  1  0
  4 21  1  0
  5 22  1  0
  5 23  1  0
  6 24  1  0
  6 25  1  0
  7 26  1  0
  7 27  1  0
  8 28  1  0
  8 29  1  0
  9 30  1  0
  9 31  1  0
M  CHG  1  12  -1
M  END
>  <meeko>  (11) 
{"is_sidechain": [false], "free_energy": -4.34, "intermolecular_energy": -6.351, "internal_energy": -0.605}

$$$$
DKA_redock_run01
     RDKit          3D

 31 30  0  0  0  0  0  0  0  0999 V2000
   51.6540   32.3000   25.2460 C   0  0  0  0  0  0  0  0  0  0  0  0
   50.4310   33.0500   25.3580 C   0  0  0  0  0  0  0  0  0  0  0  0
   49.1930   32.5260   24.9860 C   0  0  0  0  0  0  0  0  0  0  0  0
   48.3820   31.7670   25.9350 C   0  0  0  0  0  0  0  0  0  0  0  0
   46.9280   31.9200   25.7420 C   0  0  0  0  0  0  0  0  0  0  0  0
   46.2090   33.0640   26.1650 C   0  0  0  0  0  0  0  0  0  0  0  0
   45.7460   34.1010   25.2260 C   0  0  0  0  0  0  0  0  0  0  0  0
   46.6880   35.3100   25.1240 C   0  0  0  0  0  0  0  0  0  0  0  0
   47.5150   35.6080   26.3140 C   0  0  0  0  0  0  0  0  0  0  0  0
   47.2050   36.8840   27.0860 C   0  0  0  0  0  0  0  0  0  0  0  0
   46.7790   37.8920   26.4650 O   0  0  0  0  0  0  0  0  0  0  0  0
   47.3600   36.8850   28.3340 O   0  0  0  0  0  0  0  0  0  0  0  0
   52.0344   32.0667   26.2514 H   0  0  0  0  0  0  0  0  0  0  0  0
   51.4617   31.3644   24.7005 H   0  0  0  0  0  0  0  0  0  0  0  0
   52.4007   32.8956   24.7005 H   0  0  0  0  0  0  0  0  0  0  0  0
   50.3390   33.3273   26.4185 H   0  0  0  0  0  0  0  0  0  0  0  0
   50.5789   33.8359   24.6028 H   0  0  0  0  0  0  0  0  0  0  0  0
   48.5780   33.3777   24.6600 H   0  0  0  0  0  0  0  0  0  0  0  0
   49.4662   31.7662   24.2390 H   0  0  0  0  0  0  0  0  0  0  0  0
   48.6341   30.7014   25.8300 H   0  0  0  0  0  0  0  0  0  0  0  0
   48.6123   32.1616   26.9356 H   0  0  0  0  0  0  0  0  0  0  0  0
   46.7561   31.8378   24.6586 H   0  0  0  0  0  0  0  0  0  0  0  0
   46.5342   31.1497   26.4214 H   0  0  0  0  0  0  0  0  0  0  0  0
   45.3086   32.6881   26.6730 H   0  0  0  0  0  0  0  0  0  0  0  0
   46.9708   33.6076   26.7430 H   0  0  0  0  0  0  0  0  0  0  0  0
   45.6532   33.6485   24.2277 H   0  0  0  0  0  0  0  0  0  0  0  0
   44.7853   34.4748   25.6097 H   0  0  0  0  0  0  0  0  0  0  0  0
   47.3702   35.1312   24.2798 H   0  0  0  0  0  0  0  0  0  0  0  0
   46.0284   36.1821   25.0036 H   0  0  0  0  0  0  0  0  0  0  0  0
   47.4029   34.7654   27.0122 H   0  0  0  0  0  0  0  0  0  0  0  0
   48.5299   35.7603   25.9181 H   0  0  0  0  0  0  0  0  0  0  0  0
  1  2  1  0
  2  3  1  0
  3  4  1  0
  4  5  1  0
  5  6  1  0
  6  7  1  0
  7  8  1  0
  8  9  1  0
  9 10  1  0
 10 11  2  0
 10 12  1  0
  1 13  1  0
  1 14  1  0
  1 15  1  0
  2 16  1  0
  2 17  1  0
  3 18  1  0
  3 19  1  0
  4 20  1  0
  4 21  1  0
  5 22  1  0
  5 23  1  0
  6 24  1  0
  6 25  1  0
  7 26  1  0
  7 27  1  0
  8 28  1  0
  8 29  1  0
  9 30  1  0
  9 31  1  0
M  CHG  1  12  -1
M  END
>  <meeko>  (12) 
{"is_sidechain": [false], "free_energy": -4.323, "intermolecular_energy": -6.189, "internal_energy": -0.74}

$$$$
DKA_redock_run01
     RDKit          3D

 31 30  0  0  0  0  0  0  0  0999 V2000
   47.9100   37.6850   26.1770 C   0  0  0  0  0  0  0  0  0  0  0  0
   48.2270   38.2910   27.4430 C   0  0  0  0  0  0  0  0  0  0  0  0
   47.9930   37.6530   28.6610 C   0  0  0  0  0  0  0  0  0  0  0  0
   48.6310   36.3760   28.9750 C   0  0  0  0  0  0  0  0  0  0  0  0
   47.6860   35.2570   29.1440 C   0  0  0  0  0  0  0  0  0  0  0  0
   47.3360   34.3750   28.0920 C   0  0  0  0  0  0  0  0  0  0  0  0
   48.2660   34.0360   27.0010 C   0  0  0  0  0  0  0  0  0  0  0  0
   47.6040   33.2890   25.8330 C   0  0  0  0  0  0  0  0  0  0  0  0
   46.1660   33.5520   25.6080 C   0  0  0  0  0  0  0  0  0  0  0  0
   45.7840   34.3890   24.3940 C   0  0  0  0  0  0  0  0  0  0  0  0
   44.7500   34.0910   23.7400 O   0  0  0  0  0  0  0  0  0  0  0  0
   46.5010   35.3780   24.0940 O   0  0  0  0  0  0  0  0  0  0  0  0
   47.4063   36.7221   26.3473 H   0  0  0  0  0  0  0  0  0  0  0  0
   47.2449   38.3511   25.6079 H   0  0  0  0  0  0  0  0  0  0  0  0
   48.8365   37.5185   25.6079 H   0  0  0  0  0  0  0  0  0  0  0  0
   49.3047   38.5095   27.4152 H   0  0  0  0  0  0  0  0  0  0  0  0
   47.5054   39.1203   27.4818 H   0  0  0  0  0  0  0  0  0  0  0  0
   48.2997   38.3580   29.4477 H   0  0  0  0  0  0  0  0  0  0  0  0
   46.9290   37.3823   28.5926 H   0  0  0  0  0  0  0  0  0  0  0  0
   49.3217   36.1244   28.1567 H   0  0  0  0  0  0  0  0  0  0  0  0
   49.1444   36.5062   29.9391 H   0  0  0  0  0  0  0  0  0  0  0  0
   48.1041   34.6256   29.9419 H   0  0  0  0  0  0  0  0  0  0  0  0
   46.7388   35.7925   29.3054 H   0  0  0  0  0  0  0  0  0  0  0  0
   47.0652   33.4219   28.5698 H   0  0  0  0  0  0  0  0  0  0  0  0
   46.5656   34.9527   27.5603 H   0  0  0  0  0  0  0  0  0  0  0  0
   48.7016   34.9689   26.6139 H   0  0  0  0  0  0  0  0  0  0  0  0
   49.0249   33.3615   27.4243 H   0  0  0  0  0  0  0  0  0  0  0  0
   48.1414   33.5643   24.9135 H   0  0  0  0  0  0  0  0  0  0  0  0
   47.6656   32.2233   26.0985 H   0  0  0  0  0  0  0  0  0  0  0  0
   45.6651   32.5779   25.5070 H   0  0  0  0  0  0  0  0  0  0  0  0
   45.8536   34.1554   26.4730 H   0  0  0  0  0  0  0  0  0  0  0  0
  1  2  1  0
  2  3  1  0
  3  4  1  0
  4  5  1  0
  5  6  1  0
  6  7  1  0
  7  8  1  0
  8  9  1  0
  9 10  1  0
 10 11  2  0
 10 12  1  0
  1 13  1  0
  1 14  1  0
  1 15  1  0
  2 16  1  0
  2 17  1  0
  3 18  1  0
  3 19  1  0
  4 20  1  0
  4 21  1  0
  5 22  1  0
  5 23  1  0
  6 24  1  0
  6 25  1  0
  7 26  1  0
  7 27  1  0
  8 28  1  0
  8 29  1  0
  9 30  1  0
  9 31  1  0
M  CHG  1  12  -1
M  END
>  <meeko>  (13) 
{"is_sidechain": [false], "free_energy": -4.275, "intermolecular_energy": -6.136, "internal_energy": -0.724}

$$$$
DKA_redock_run01
     RDKit          3D

 31 30  0  0  0  0  0  0  0  0999 V2000
   47.1640   37.5220   26.5060 C   0  0  0  0  0  0  0  0  0  0  0  0
   47.5070   36.4390   25.6230 C   0  0  0  0  0  0  0  0  0  0  0  0
   46.5690   35.5060   25.1780 C   0  0  0  0  0  0  0  0  0  0  0  0
   46.7740   34.0750   25.3900 C   0  0  0  0  0  0  0  0  0  0  0  0
   48.1850   33.6900   25.5730 C   0  0  0  0  0  0  0  0  0  0  0  0
   48.7460   33.3870   26.8380 C   0  0  0  0  0  0  0  0  0  0  0  0
   47.9380   32.8820   27.9620 C   0  0  0  0  0  0  0  0  0  0  0  0
   47.6250   33.9440   29.0260 C   0  0  0  0  0  0  0  0  0  0  0  0
   48.4850   35.1480   29.0340 C   0  0  0  0  0  0  0  0  0  0  0  0
   48.2510   36.1750   30.1350 C   0  0  0  0  0  0  0  0  0  0  0  0
   47.3660   37.0570   29.9760 O   0  0  0  0  0  0  0  0  0  0  0  0
   48.9320   36.0960   31.1880 O   0  0  0  0  0  0  0  0  0  0  0  0
   47.2688   37.1912   27.5498 H   0  0  0  0  0  0  0  0  0  0  0  0
   47.8367   38.3725   26.3216 H   0  0  0  0  0  0  0  0  0  0  0  0
   46.1243   37.8302   26.3216 H   0  0  0  0  0  0  0  0  0  0  0  0
   47.9274   36.9039   24.7190 H   0  0  0  0  0  0  0  0  0  0  0  0
   48.1512   35.8208   26.2656 H   0  0  0  0  0  0  0  0  0  0  0  0
   45.6172   35.7616   25.6665 H   0  0  0  0  0  0  0  0  0  0  0  0
   46.6329   35.6007   24.0839 H   0  0  0  0  0  0  0  0  0  0  0  0
   46.2148   33.7753   26.2886 H   0  0  0  0  0  0  0  0  0  0  0  0
   46.4215   33.5659   24.4809 H   0  0  0  0  0  0  0  0  0  0  0  0
   48.3374   32.7949   24.9521 H   0  0  0  0  0  0  0  0  0  0  0  0
   48.7023   34.6280   25.3229 H   0  0  0  0  0  0  0  0  0  0  0  0
   49.5216   32.6289   26.6545 H   0  0  0  0  0  0  0  0  0  0  0  0
   49.0376   34.3840   27.2000 H   0  0  0  0  0  0  0  0  0  0  0  0
   46.9868   32.5010   27.5618 H   0  0  0  0  0  0  0  0  0  0  0  0
   48.5307   32.0981   28.4561 H   0  0  0  0  0  0  0  0  0  0  0  0
   46.5878   34.2759   28.8711 H   0  0  0  0  0  0  0  0  0  0  0  0
   47.8090   33.4500   29.9915 H   0  0  0  0  0  0  0  0  0  0  0  0
   49.5275   34.8072   29.1181 H   0  0  0  0  0  0  0  0  0  0  0  0
   48.2349   35.6760   28.1019 H   0  0  0  0  0  0  0  0  0  0  0  0
  1  2  1  0
  2  3  1  0
  3  4  1  0
  4  5  1  0
  5  6  1  0
  6  7  1  0
  7  8  1  0
  8  9  1  0
  9 10  1  0
 10 11  2  0
 10 12  1  0
  1 13  1  0
  1 14  1  0
  1 15  1  0
  2 16  1  0
  2 17  1  0
  3 18  1  0
  3 19  1  0
  4 20  1  0
  4 21  1  0
  5 22  1  0
  5 23  1  0
  6 24  1  0
  6 25  1  0
  7 26  1  0
  7 27  1  0
  8 28  1  0
  8 29  1  0
  9 30  1  0
  9 31  1  0
M  CHG  1  12  -1
M  END
>  <meeko>  (14) 
{"is_sidechain": [false], "free_energy": -4.142, "intermolecular_energy": -5.794, "internal_energy": -0.871}

$$$$
DKA_redock_run01
     RDKit          3D

 31 30  0  0  0  0  0  0  0  0999 V2000
   46.6740   35.8150   25.3750 C   0  0  0  0  0  0  0  0  0  0  0  0
   47.8630   36.4230   25.9120 C   0  0  0  0  0  0  0  0  0  0  0  0
   47.8190   37.4860   26.8160 C   0  0  0  0  0  0  0  0  0  0  0  0
   47.3880   37.2800   28.1970 C   0  0  0  0  0  0  0  0  0  0  0  0
   48.3600   36.5460   29.0270 C   0  0  0  0  0  0  0  0  0  0  0  0
   47.9900   35.4990   29.9070 C   0  0  0  0  0  0  0  0  0  0  0  0
   47.8610   35.6950   31.3620 C   0  0  0  0  0  0  0  0  0  0  0  0
   47.5280   34.4090   32.1330 C   0  0  0  0  0  0  0  0  0  0  0  0
   46.9650   34.5770   33.4910 C   0  0  0  0  0  0  0  0  0  0  0  0
   45.5670   34.0300   33.7470 C   0  0  0  0  0  0  0  0  0  0  0  0
   44.8630   33.6570   32.7720 O   0  0  0  0  0  0  0  0  0  0  0  0
   45.1630   33.9390   34.9340 O   0  0  0  0  0  0  0  0  0  0  0  0
   46.0266   35.4840   26.2004 H   0  0  0  0  0  0  0  0  0  0  0  0
   46.1344   36.5479   24.7571 H   0  0  0  0  0  0  0  0  0  0  0  0
   46.9523   34.9485   24.7571 H   0  0  0  0  0  0  0  0  0  0  0  0
   48.4178   35.6172   26.4148 H   0  0  0  0  0  0  0  0  0  0  0  0
   48.2934   36.9027   25.0206 H   0  0  0  0  0  0  0  0  0  0  0  0
   48.8376   37.8985   26.8641 H   0  0  0  0  0  0  0  0  0  0  0  0
   47.0208   38.1214   26.4048 H   0  0  0  0  0  0  0  0  0  0  0  0
   47.2159   38.2648   28.6558 H   0  0  0  0  0  0  0  0  0  0  0  0
   46.4767   36.6653   28.1568 H   0  0  0  0  0  0  0  0  0  0  0  0
   49.0877   36.1100   28.3268 H   0  0  0  0  0  0  0  0  0  0  0  0
   48.6770   37.3259   29.7350 H   0  0  0  0  0  0  0  0  0  0  0  0
   47.0102   35.1398   29.5592 H   0  0  0  0  0  0  0  0  0  0  0  0
   48.8642   34.8341   29.8460 H   0  0  0  0  0  0  0  0  0  0  0  0
   48.8129   36.0921   31.7443 H   0  0  0  0  0  0  0  0  0  0  0  0
   47.0223   36.3892   31.5189 H   0  0  0  0  0  0  0  0  0  0  0  0
   46.7977   33.8423   31.5368 H   0  0  0  0  0  0  0  0  0  0  0  0
   48.4927   33.9013   32.2800 H   0  0  0  0  0  0  0  0  0  0  0  0
   47.6477   34.0778   34.1944 H   0  0  0  0  0  0  0  0  0  0  0  0
   46.8674   35.6650   33.6204 H   0  0  0  0  0  0  0  0  0  0  0  0
  1  2  1  0
  2  3  1  0
  3  4  1  0
  4  5  1  0
  5  6  1  0
  6  7  1  0
  7  8  1  0
  8  9  1  0
  9 10  1  0
 10 11  2  0
 10 12  1  0
  1 13  1  0
  1 14  1  0
  1 15  1  0
  2 16  1  0
  2 17  1  0
  3 18  1  0
  3 19  1  0
  4 20  1  0
  4 21  1  0
  5 22  1  0
  5 23  1  0
  6 24  1  0
  6 25  1  0
  7 26  1  0
  7 27  1  0
  8 28  1  0
  8 29  1  0
  9 30  1  0
  9 31  1  0
M  CHG  1  12  -1
M  END
>  <meeko>  (15) 
{"is_sidechain": [false], "free_energy": -4.136, "intermolecular_energy": -6.355, "internal_energy": -0.302}

$$$$
DKA_redock_run01
     RDKit          3D

 31 30  0  0  0  0  0  0  0  0999 V2000
   45.1440   26.1340   33.2420 C   0  0  0  0  0  0  0  0  0  0  0  0
   46.2400   26.9430   33.7050 C   0  0  0  0  0  0  0  0  0  0  0  0
   46.9820   26.6230   34.8420 C   0  0  0  0  0  0  0  0  0  0  0  0
   48.1430   27.4200   35.2320 C   0  0  0  0  0  0  0  0  0  0  0  0
   47.8660   28.8630   35.3580 C   0  0  0  0  0  0  0  0  0  0  0  0
   48.5810   29.8530   34.6410 C   0  0  0  0  0  0  0  0  0  0  0  0
   47.9340   31.0610   34.1000 C   0  0  0  0  0  0  0  0  0  0  0  0
   46.4410   30.8800   33.7920 C   0  0  0  0  0  0  0  0  0  0  0  0
   45.5010   31.7580   34.5230 C   0  0  0  0  0  0  0  0  0  0  0  0
   45.3790   33.2030   34.0580 C   0  0  0  0  0  0  0  0  0  0  0  0
   45.0360   33.4410   32.8700 O   0  0  0  0  0  0  0  0  0  0  0  0
   45.5980   34.1240   34.8860 O   0  0  0  0  0  0  0  0  0  0  0  0
   44.5962   25.7296   34.1059 H   0  0  0  0  0  0  0  0  0  0  0  0
   44.4656   26.7495   32.6330 H   0  0  0  0  0  0  0  0  0  0  0  0
   45.5323   25.3043   32.6330 H   0  0  0  0  0  0  0  0  0  0  0  0
   46.9592   26.9870   32.8738 H   0  0  0  0  0  0  0  0  0  0  0  0
   45.7230   27.8597   34.0249 H   0  0  0  0  0  0  0  0  0  0  0  0
   46.2827   26.6532   35.6905 H   0  0  0  0  0  0  0  0  0  0  0  0
   47.4318   25.6559   34.5730 H   0  0  0  0  0  0  0  0  0  0  0  0
   48.5050   27.0513   36.2031 H   0  0  0  0  0  0  0  0  0  0  0  0
   48.8888   27.3082   34.4312 H   0  0  0  0  0  0  0  0  0  0  0  0
   46.8092   28.9935   35.0820 H   0  0  0  0  0  0  0  0  0  0  0  0
   48.1940   29.0598   36.3894 H   0  0  0  0  0  0  0  0  0  0  0  0
   49.3731   30.2075   35.3170 H   0  0  0  0  0  0  0  0  0  0  0  0
   48.8540   29.3129   33.7224 H   0  0  0  0  0  0  0  0  0  0  0  0
   48.0403   31.8707   34.8369 H   0  0  0  0  0  0  0  0  0  0  0  0
   48.4319   31.2910   33.1465 H   0  0  0  0  0  0  0  0  0  0  0  0
   46.2982   31.0608   32.7164 H   0  0  0  0  0  0  0  0  0  0  0  0
   46.1993   29.8589   34.1221 H   0  0  0  0  0  0  0  0  0  0  0  0
   44.5020   31.3035   34.4502 H   0  0  0  0  0  0  0  0  0  0  0  0
   45.9156   31.8259   35.5396 H   0  0  0  0  0  0  0  0  0  0  0  0
  1  2  1  0
  2  3  1  0
  3  4  1  0
  4  5  1  0
  5  6  1  0
  6  7  1  0
  7  8  1  0
  8  9  1  0
  9 10  1  0
 10 11  2  0
 10 12  1  0
  1 13  1  0
  1 14  1  0
  1 15  1  0
  2 16  1  0
  2 17  1  0
  3 18  1  0
  3 19  1  0
  4 20  1  0
  4 21  1  0
  5 22  1  0
  5 23  1  0
  6 24  1  0
  6 25  1  0
  7 26  1  0
  7 27  1  0
  8 28  1  0
  8 29  1  0
  9 30  1  0
  9 31  1  0
M  CHG  1  12  -1
M  END
>  <meeko>  (16) 
{"is_sidechain": [false], "free_energy": -4.082, "intermolecular_energy": -5.986, "internal_energy": -0.591}

$$$$
DKA_redock_run01
     RDKit          3D

 31 30  0  0  0  0  0  0  0  0999 V2000
   48.1100   37.4810   28.0240 C   0  0  0  0  0  0  0  0  0  0  0  0
   47.3810   37.5240   26.7840 C   0  0  0  0  0  0  0  0  0  0  0  0
   47.6100   36.6180   25.7470 C   0  0  0  0  0  0  0  0  0  0  0  0
   46.6460   35.5630   25.4450 C   0  0  0  0  0  0  0  0  0  0  0  0
   47.2240   34.2070   25.4230 C   0  0  0  0  0  0  0  0  0  0  0  0
   48.5800   33.9400   25.7330 C   0  0  0  0  0  0  0  0  0  0  0  0
   49.3340   32.8400   25.1070 C   0  0  0  0  0  0  0  0  0  0  0  0
   50.7880   32.7300   25.5920 C   0  0  0  0  0  0  0  0  0  0  0  0
   51.6800   31.8420   24.8150 C   0  0  0  0  0  0  0  0  0  0  0  0
   53.1540   31.8130   25.1980 C   0  0  0  0  0  0  0  0  0  0  0  0
   53.8320   32.8700   25.1200 O   0  0  0  0  0  0  0  0  0  0  0  0
   53.6480   30.7320   25.6110 O   0  0  0  0  0  0  0  0  0  0  0  0
   47.4037   37.5227   28.8662 H   0  0  0  0  0  0  0  0  0  0  0  0
   48.6889   36.5471   28.0768 H   0  0  0  0  0  0  0  0  0  0  0  0
   48.7947   38.3403   28.0768 H   0  0  0  0  0  0  0  0  0  0  0  0
   46.3188   37.4209   27.0505 H   0  0  0  0  0  0  0  0  0  0  0  0
   47.7406   38.4658   26.3438 H   0  0  0  0  0  0  0  0  0  0  0  0
   47.7195   37.2141   24.8290 H   0  0  0  0  0  0  0  0  0  0  0  0
   48.4829   36.0533   26.1065 H   0  0  0  0  0  0  0  0  0  0  0  0
   45.8551   35.5889   26.2090 H   0  0  0  0  0  0  0  0  0  0  0  0
   46.2655   35.7618   24.4322 H   0  0  0  0  0  0  0  0  0  0  0  0
   46.6287   33.6126   26.1317 H   0  0  0  0  0  0  0  0  0  0  0  0
   47.1945   33.9734   24.3485 H   0  0  0  0  0  0  0  0  0  0  0  0
   49.1337   34.8613   25.4995 H   0  0  0  0  0  0  0  0  0  0  0  0
   48.5095   33.5994   26.7766 H   0  0  0  0  0  0  0  0  0  0  0  0
   48.8202   31.8942   25.3339 H   0  0  0  0  0  0  0  0  0  0  0  0
   49.3713   33.0505   24.0280 H   0  0  0  0  0  0  0  0  0  0  0  0
   51.2235   33.7400   25.5730 H   0  0  0  0  0  0  0  0  0  0  0  0
   50.7266   32.2762   26.5921 H   0  0  0  0  0  0  0  0  0  0  0  0
   51.2935   30.8171   24.9160 H   0  0  0  0  0  0  0  0  0  0  0  0
   51.6644   32.2535   23.7950 H   0  0  0  0  0  0  0  0  0  0  0  0
  1  2  1  0
  2  3  1  0
  3  4  1  0
  4  5  1  0
  5  6  1  0
  6  7  1  0
  7  8  1  0
  8  9  1  0
  9 10  1  0
 10 11  2  0
 10 12  1  0
  1 13  1  0
  1 14  1  0
  1 15  1  0
  2 16  1  0
  2 17  1  0
  3 18  1  0
  3 19  1  0
  4 20  1  0
  4 21  1  0
  5 22  1  0
  5 23  1  0
  6 24  1  0
  6 25  1  0
  7 26  1  0
  7 27  1  0
  8 28  1  0
  8 29  1  0
  9 30  1  0
  9 31  1  0
M  CHG  1  12  -1
M  END
>  <meeko>  (17) 
{"is_sidechain": [false], "free_energy": -4.076, "intermolecular_energy": -6.22, "internal_energy": -0.348}

$$$$
DKA_redock_run01
     RDKit          3D

 31 30  0  0  0  0  0  0  0  0999 V2000
   48.0770   37.3560   28.1090 C   0  0  0  0  0  0  0  0  0  0  0  0
   47.3920   37.4740   26.8490 C   0  0  0  0  0  0  0  0  0  0  0  0
   47.6370   36.6130   25.7780 C   0  0  0  0  0  0  0  0  0  0  0  0
   46.6660   35.5890   25.4000 C   0  0  0  0  0  0  0  0  0  0  0  0
   47.2130   34.2210   25.3720 C   0  0  0  0  0  0  0  0  0  0  0  0
   48.5680   33.9240   25.6600 C   0  0  0  0  0  0  0  0  0  0  0  0
   49.2640   32.7610   25.0810 C   0  0  0  0  0  0  0  0  0  0  0  0
   50.7740   32.7410   25.3610 C   0  0  0  0  0  0  0  0  0  0  0  0
   51.5530   31.6600   24.7180 C   0  0  0  0  0  0  0  0  0  0  0  0
   50.8440   30.3370   24.4600 C   0  0  0  0  0  0  0  0  0  0  0  0
   50.5890   29.5750   25.4290 O   0  0  0  0  0  0  0  0  0  0  0  0
   50.5050   30.0540   23.2820 O   0  0  0  0  0  0  0  0  0  0  0  0
   47.3566   37.4801   28.9310 H   0  0  0  0  0  0  0  0  0  0  0  0
   48.5465   36.3637   28.1796 H   0  0  0  0  0  0  0  0  0  0  0  0
   48.8515   38.1340   28.1796 H   0  0  0  0  0  0  0  0  0  0  0  0
   46.3193   37.3828   27.0749 H   0  0  0  0  0  0  0  0  0  0  0  0
   47.7865   38.4270   26.4666 H   0  0  0  0  0  0  0  0  0  0  0  0
   47.7823   37.2488   24.8922 H   0  0  0  0  0  0  0  0  0  0  0  0
   48.4902   36.0179   26.1356 H   0  0  0  0  0  0  0  0  0  0  0  0
   45.8377   35.6149   26.1233 H   0  0  0  0  0  0  0  0  0  0  0  0
   46.3428   35.8220   24.3747 H   0  0  0  0  0  0  0  0  0  0  0  0
   46.6165   33.6417   26.0922 H   0  0  0  0  0  0  0  0  0  0  0  0
   47.1604   33.9859   24.2987 H   0  0  0  0  0  0  0  0  0  0  0  0
   49.1461   34.8088   25.3553 H   0  0  0  0  0  0  0  0  0  0  0  0
   48.5176   33.6499   26.7241 H   0  0  0  0  0  0  0  0  0  0  0  0
   48.8209   31.8465   25.5020 H   0  0  0  0  0  0  0  0  0  0  0  0
   49.1409   32.8240   23.9897 H   0  0  0  0  0  0  0  0  0  0  0  0
   51.1895   33.7004   25.0191 H   0  0  0  0  0  0  0  0  0  0  0  0
   50.8660   32.5609   26.4422 H   0  0  0  0  0  0  0  0  0  0  0  0
   51.9039   32.0400   23.7472 H   0  0  0  0  0  0  0  0  0  0  0  0
   52.3435   31.4163   25.4431 H   0  0  0  0  0  0  0  0  0  0  0  0
  1  2  1  0
  2  3  1  0
  3  4  1  0
  4  5  1  0
  5  6  1  0
  6  7  1  0
  7  8  1  0
  8  9  1  0
  9 10  1  0
 10 11  2  0
 10 12  1  0
  1 13  1  0
  1 14  1  0
  1 15  1  0
  2 16  1  0
  2 17  1  0
  3 18  1  0
  3 19  1  0
  4 20  1  0
  4 21  1  0
  5 22  1  0
  5 23  1  0
  6 24  1  0
  6 25  1  0
  7 26  1  0
  7 27  1  0
  8 28  1  0
  8 29  1  0
  9 30  1  0
  9 31  1  0
M  CHG  1  12  -1
M  END
>  <meeko>  (18) 
{"is_sidechain": [false], "free_energy": -4.008, "intermolecular_energy": -6.078, "internal_energy": -0.39}

$$$$
DKA_redock_run01
     RDKit          3D

 31 30  0  0  0  0  0  0  0  0999 V2000
   47.6120   36.9200   28.9280 C   0  0  0  0  0  0  0  0  0  0  0  0
   47.9300   37.6370   27.7220 C   0  0  0  0  0  0  0  0  0  0  0  0
   47.2400   37.4370   26.5260 C   0  0  0  0  0  0  0  0  0  0  0  0
   47.6000   36.3430   25.6260 C   0  0  0  0  0  0  0  0  0  0  0  0
   46.4670   35.4800   25.2450 C   0  0  0  0  0  0  0  0  0  0  0  0
   46.2000   34.2350   25.8660 C   0  0  0  0  0  0  0  0  0  0  0  0
   47.1920   33.5400   26.7050 C   0  0  0  0  0  0  0  0  0  0  0  0
   46.6020   32.9320   27.9870 C   0  0  0  0  0  0  0  0  0  0  0  0
   46.0390   31.5680   27.8750 C   0  0  0  0  0  0  0  0  0  0  0  0
   45.1560   31.0740   29.0140 C   0  0  0  0  0  0  0  0  0  0  0  0
   44.5850   29.9570   28.9110 O   0  0  0  0  0  0  0  0  0  0  0  0
   45.0440   31.7890   30.0430 O   0  0  0  0  0  0  0  0  0  0  0  0
   47.8834   37.5320   29.8008 H   0  0  0  0  0  0  0  0  0  0  0  0
   46.5337   36.7040   28.9527 H   0  0  0  0  0  0  0  0  0  0  0  0
   48.1757   35.9758   28.9527 H   0  0  0  0  0  0  0  0  0  0  0  0
   47.8195   38.7045   27.9634 H   0  0  0  0  0  0  0  0  0  0  0  0
   48.9248   37.2363   27.4776 H   0  0  0  0  0  0  0  0  0  0  0  0
   46.1840   37.2869   26.7949 H   0  0  0  0  0  0  0  0  0  0  0  0
   47.5040   38.3302   25.9407 H   0  0  0  0  0  0  0  0  0  0  0  0
   48.0280   36.7759   24.7098 H   0  0  0  0  0  0  0  0  0  0  0  0
   48.3146   35.7072   26.1692 H   0  0  0  0  0  0  0  0  0  0  0  0
   45.5619   36.0889   25.3864 H   0  0  0  0  0  0  0  0  0  0  0  0
   46.7642   35.1616   24.2349 H   0  0  0  0  0  0  0  0  0  0  0  0
   45.3184   34.3948   26.5042 H   0  0  0  0  0  0  0  0  0  0  0  0
   46.1265   33.5618   24.9992 H   0  0  0  0  0  0  0  0  0  0  0  0
   47.6415   32.7300   26.1118 H   0  0  0  0  0  0  0  0  0  0  0  0
   47.9310   34.2924   27.0176 H   0  0  0  0  0  0  0  0  0  0  0  0
   47.4023   32.9019   28.7411 H   0  0  0  0  0  0  0  0  0  0  0  0
   45.7501   33.5769   28.2485 H   0  0  0  0  0  0  0  0  0  0  0  0
   45.4380   31.5346   26.9543 H   0  0  0  0  0  0  0  0  0  0  0  0
   46.9144   30.9021   27.8911 H   0  0  0  0  0  0  0  0  0  0  0  0
  1  2  1  0
  2  3  1  0
  3  4  1  0
  4  5  1  0
  5  6  1  0
  6  7  1  0
  7  8  1  0
  8  9  1  0
  9 10  1  0
 10 11  2  0
 10 12  1  0
  1 13  1  0
  1 14  1  0
  1 15  1  0
  2 16  1  0
  2 17  1  0
  3 18  1  0
  3 19  1  0
  4 20  1  0
  4 21  1  0
  5 22  1  0
  5 23  1  0
  6 24  1  0
  6 25  1  0
  7 26  1  0
  7 27  1  0
  8 28  1  0
  8 29  1  0
  9 30  1  0
  9 31  1  0
M  CHG  1  12  -1
M  END
>  <meeko>  (19) 
{"is_sidechain": [false], "free_energy": -3.966, "intermolecular_energy": -5.801, "internal_energy": -0.605}

$$$$
DKA_redock_run01
     RDKit          3D

 31 30  0  0  0  0  0  0  0  0999 V2000
   47.8850   37.9240   26.2210 C   0  0  0  0  0  0  0  0  0  0  0  0
   47.2420   36.6550   26.0030 C   0  0  0  0  0  0  0  0  0  0  0  0
   47.9390   35.5240   25.5770 C   0  0  0  0  0  0  0  0  0  0  0  0
   48.2680   34.4480   26.5090 C   0  0  0  0  0  0  0  0  0  0  0  0
   47.2850   34.2700   27.5930 C   0  0  0  0  0  0  0  0  0  0  0  0
   47.5270   34.6730   28.9300 C   0  0  0  0  0  0  0  0  0  0  0  0
   48.6640   35.5320   29.3050 C   0  0  0  0  0  0  0  0  0  0  0  0
   48.9430   35.5650   30.8150 C   0  0  0  0  0  0  0  0  0  0  0  0
   47.9510   34.8980   31.6870 C   0  0  0  0  0  0  0  0  0  0  0  0
   47.1570   35.7720   32.6490 C   0  0  0  0  0  0  0  0  0  0  0  0
   45.9360   35.5290   32.8380 O   0  0  0  0  0  0  0  0  0  0  0  0
   47.7530   36.7010   33.2510 O   0  0  0  0  0  0  0  0  0  0  0  0
   47.9778   38.1072   27.3017 H   0  0  0  0  0  0  0  0  0  0  0  0
   48.8855   37.9114   25.7640 H   0  0  0  0  0  0  0  0  0  0  0  0
   47.2831   38.7233   25.7640 H   0  0  0  0  0  0  0  0  0  0  0  0
   46.7729   36.3821   26.9598 H   0  0  0  0  0  0  0  0  0  0  0  0
   46.6082   36.8708   25.1302 H   0  0  0  0  0  0  0  0  0  0  0  0
   47.3386   35.0703   24.7747 H   0  0  0  0  0  0  0  0  0  0  0  0
   48.9276   35.9317   25.3192 H   0  0  0  0  0  0  0  0  0  0  0  0
   48.3316   33.5074   25.9423 H   0  0  0  0  0  0  0  0  0  0  0  0
   49.2207   34.7214   26.9861 H   0  0  0  0  0  0  0  0  0  0  0  0
   46.3809   34.8089   27.2733 H   0  0  0  0  0  0  0  0  0  0  0  0
   47.2658   33.1748   27.6941 H   0  0  0  0  0  0  0  0  0  0  0  0
   46.6215   35.2049   29.2573 H   0  0  0  0  0  0  0  0  0  0  0  0
   47.7980   33.7196   29.4071 H   0  0  0  0  0  0  0  0  0  0  0  0
   49.5639   35.1592   28.7939 H   0  0  0  0  0  0  0  0  0  0  0  0
   48.4041   36.5577   29.0042 H   0  0  0  0  0  0  0  0  0  0  0  0
   49.9159   35.0808   30.9852 H   0  0  0  0  0  0  0  0  0  0  0  0
   48.9053   36.6285   31.0936 H   0  0  0  0  0  0  0  0  0  0  0  0
   47.2284   34.3878   31.0331 H   0  0  0  0  0  0  0  0  0  0  0  0
   48.5474   34.2393   32.3355 H   0  0  0  0  0  0  0  0  0  0  0  0
  1  2  1  0
  2  3  1  0
  3  4  1  0
  4  5  1  0
  5  6  1  0
  6  7  1  0
  7  8  1  0
  8  9  1  0
  9 10  1  0
 10 11  2  0
 10 12  1  0
  1 13  1  0
  1 14  1  0
  1 15  1  0
  2 16  1  0
  2 17  1  0
  3 18  1  0
  3 19  1  0
  4 20  1  0
  4 21  1  0
  5 22  1  0
  5 23  1  0
  6 24  1  0
  6 25  1  0
  7 26  1  0
  7 27  1  0
  8 28  1  0
  8 29  1  0
  9 30  1  0
  9 31  1  0
M  CHG  1  12  -1
M  END
>  <meeko>  (20) 
{"is_sidechain": [false], "free_energy": -3.922, "intermolecular_energy": -5.758, "internal_energy": -0.584}

$$$$
