DKA_crystal_local_anion
     RDKit          3D

 31 30  0  0  0  0  0  0  0  0999 V2000
   53.5400   36.4240   32.0050 C   0  0  0  0  0  0  0  0  0  0  0  0
   52.4080   35.5470   32.1420 C   0  0  0  0  0  0  0  0  0  0  0  0
   51.0920   35.9970   32.0300 C   0  0  0  0  0  0  0  0  0  0  0  0
   50.0570   35.1530   31.4380 C   0  0  0  0  0  0  0  0  0  0  0  0
   49.2440   35.8290   30.4100 C   0  0  0  0  0  0  0  0  0  0  0  0
   47.8880   36.1860   30.6070 C   0  0  0  0  0  0  0  0  0  0  0  0
   47.1950   35.9870   31.8930 C   0  0  0  0  0  0  0  0  0  0  0  0
   46.1920   37.0990   32.2340 C   0  0  0  0  0  0  0  0  0  0  0  0
   45.5560   37.0300   33.5690 C   0  0  0  0  0  0  0  0  0  0  0  0
   44.0670   36.7130   33.6250 C   0  0  0  0  0  0  0  0  0  0  0  0
   43.5630   35.9640   32.7490 O   0  0  0  0  0  0  0  0  0  0  0  0
   43.3850   37.1900   34.5680 O   0  0  0  0  0  0  0  0  0  0  0  0
   53.9066   36.7080   33.0025 H   0  0  0  0  0  0  0  0  0  0  0  0
   54.3396   35.9073   31.4539 H   0  0  0  0  0  0  0  0  0  0  0  0
   53.2394   37.3273   31.4539 H   0  0  0  0  0  0  0  0  0  0  0  0
   52.5306   34.7682   31.3749 H   0  0  0  0  0  0  0  0  0  0  0  0
   52.4626   35.2737   33.2061 H   0  0  0  0  0  0  0  0  0  0  0  0
   50.7553   36.2364   33.0495 H   0  0  0  0  0  0  0  0  0  0  0  0
   51.1781   36.8196   31.3048 H   0  0  0  0  0  0  0  0  0  0  0  0
   50.5442   34.2820   30.9755 H   0  0  0  0  0  0  0  0  0  0  0  0
   49.3714   34.8739   32.2517 H   0  0  0  0  0  0  0  0  0  0  0  0
   49.7719   36.7648   30.1741 H   0  0  0  0  0  0  0  0  0  0  0  0
   49.1540   35.0400   29.6488 H   0  0  0  0  0  0  0  0  0  0  0  0
   47.8203   37.2616   30.3868 H   0  0  0  0  0  0  0  0  0  0  0  0
   47.3687   35.4660   29.9574 H   0  0  0  0  0  0  0  0  0  0  0  0
   46.6522   35.0312   31.8504 H   0  0  0  0  0  0  0  0  0  0  0  0
   47.9656   35.9983   32.6779 H   0  0  0  0  0  0  0  0  0  0  0  0
   46.7230   38.0599   32.1664 H   0  0  0  0  0  0  0  0  0  0  0  0
   45.3693   36.9791   31.5137 H   0  0  0  0  0  0  0  0  0  0  0  0
   46.0800   36.2519   34.1434 H   0  0  0  0  0  0  0  0  0  0  0  0
   45.6399   38.0502   33.9716 H   0  0  0  0  0  0  0  0  0  0  0  0
  1  2  1  0
  2  3  1  0
  3  4  1  0
  4  5  1  0
  5  6  1  0
  6  7  1  0
  7  8  1  0
  8  9  1  0
  9 10  1  0
 10 11  2  0
 10 12  1  0
  1 13  1  0
  1 14  1  0
  1 15  1  0
  2 16  1  0
  2 17  1  0
  3 18  1  0
  3 19  1  0
  4 20  1  0
  4 21  1  0
  5 22  1  0
  5 23  1  0
  6 24  1  0
  6 25  1  0
  7 26  1  0
  7 27  1  0
  8 28  1  0
  8 29  1  0
  9 30  1  0
  9 31  1  0
M  CHG  1  12  -1
M  END
>  <meeko>  (1) 
{"is_sidechain": [false]}

$$$$
